
 Fire Dynamics Simulator

 Current Date     : May  4, 2021  16:10:46
 Revision         : FDS6.7.4-0-gbfaa110-release
 Revision Date    : Fri Mar 6 10:17:46 2020 -0500
 Compiler         : Intel ifort 19.0.4.243
 Compilation Date : Mar 09, 2020 16:12:17

 MPI Enabled;    Number of MPI Processes:       1
 OpenMP Enabled; Number of OpenMP Threads:      4

 MPI version: 3.1
 MPI library version: Intel(R) MPI Library 2019 Update 4 for Linux* OS


 Job TITLE        : 
 Job ID string    : smoke_control


 Grid Dimensions, Mesh     1

   Cells in the X Direction            40
   Cells in the Y Direction            41
   Cells in the Z Direction            12
   Number of Grid Cells             19680


 Physical Dimensions, Mesh     1

   Length (m)                      10.000
   Width  (m)                      10.250
   Height (m)                       3.000
   Initial Time Step (s)            0.228

Total Number of Grid Cells         19680


 Miscellaneous Parameters

   Simulation Start Time (s)          0.0
   Simulation End Time (s)          100.0
   LES Calculation
   Eddy Viscosity:           Deardorff Model (C_DEARDORFF = 0.10)
   Near-wall Eddy Viscosity: Smagorinsky with Van Driest damping (C_SMAGORINSKY = 0.20)
   Turbulent Prandtl Number:         0.50
   Turbulent Schmidt Number:         0.50
   Ambient Temperature (C):         20.00


 Mass Fraction Transformation Matrix to Convert Species Mixtures (Columns) to Primitive Species (Rows)

                         AIR     
   NITROGEN              0.762470
   OXYGEN                0.230997
   CARBON DIOXIDE        0.000591
   WATER VAPOR           0.005941


 Primitive Species Information

   NITROGEN
   Gas Species
   Molecular Weight (g/mol)            28.01340
   Ambient Density (kg/m^3)            1.165
   Enthalpy of Formation (J/kg)        0.00E+00

   OXYGEN
   Gas Species
   Molecular Weight (g/mol)            31.99880
   Ambient Density (kg/m^3)            1.330
   Enthalpy of Formation (J/kg)        0.00E+00

   CARBON DIOXIDE
   Gas Species
   Molecular Weight (g/mol)            44.00950
   Ambient Density (kg/m^3)            1.830
   Enthalpy of Formation (J/kg)       -8.94E+06

   WATER VAPOR
   Gas Species
   Molecular Weight (g/mol)            18.01528
   Ambient Density (kg/m^3)            0.749
   Enthalpy of Formation (J/kg)       -1.34E+07


 Tracked (Lumped) Species Information

   AIR
   Molecular Weight (g/mol)            28.75199
   Ambient Density (kg/m^3)            1.195
   Initial Mass Fraction               1.000
   Enthalpy of Formation (J/kg)     -8.50E+04

   Sub Species                    Mass Fraction     Mole Fraction
   NITROGEN                       7.624701E-01      7.825730E-01
   OXYGEN                         2.309974E-01      2.075589E-01
   CARBON DIOXIDE                 5.914651E-04      3.864120E-04
   WATER VAPOR                    5.940984E-03      9.481679E-03
 
     Viscosity (kg/m/s) Ambient,  293 K:  1.80E-05
                                  500 K:  2.61E-05
                                 1000 K:  4.13E-05
                                 1500 K:  5.37E-05
   Therm. Cond. (W/m/K) Ambient,  293 K:  2.56E-02
                                  500 K:  3.81E-02
                                 1000 K:  6.69E-02
                                 1500 K:  9.25E-02
        Enthalpy (J/kg) Ambient,  293 K: -9.01E+04
                                  500 K:  1.22E+05
                                 1000 K:  6.72E+05
                                 1500 K:  1.27E+06
    Spec. Heat (J/kg/K) Ambient,  293 K:  1.02E+03
                                  500 K:  1.04E+03
                                 1000 K:  1.16E+03
                                 1500 K:  1.23E+03
   Diff. Coeff. (m^2/s) Ambient,  293 K:  1.99E-05
                                  500 K:  4.96E-05
                                 1000 K:  1.58E-04
                                 1500 K:  3.09E-04


 Material Information

   1 CONCRETE                                                    
     Emissivity                      0.800
     Density (kg/m3)                 200.0
     Specific Heat (kJ/kg/K)      8.80E-01
     Conductivity (W/m/K)           1.0000


 Surface Conditions

   0 INERT

   1 WALL (DEFAULT)
     Material List
          1  CONCRETE
     Layer  1
        Thickness   (m):  0.25000
        Density (kg/m3):   200.00
        CONCRETE, Mass fraction:    1.00
     Total surface density    50.000 kg/m2
     Reaction products considered from the first  0.50 layers.
     Solid Phase Node, Layer, Coordinates(m):
                    0      1       0.0000000
                    1      1       0.0019841
                    2      1       0.0059524
                    3      1       0.0138889
                    4      1       0.0297619
                    5      1       0.0615079
                    6      1       0.1250000
                    7      1       0.1884921
                    8      1       0.2202381
                    9      1       0.2361111
                   10      1       0.2440476
                   11      1       0.2480159
                   12      1       0.2500000
     Exposed Backing

   2 DUCT_ENCLOSURE

   3 OPEN
     Passive Vent to Atmosphere

   4 MIRROR
     Symmetry Plane

   5 INTERPOLATED

   6 PERIODIC

   7 HVAC

   8 MASSLESS TRACER

   9 DROPLET

  10 EVACUATION_OUTFLOW
     Normal Velocity (m/s)         0.000

  11 MASSLESS TARGET

  12 PERIODIC WIND

  13 SLICE


 Slice File Information, Mesh     1

   Sampling Interval (s)             0.100

   1 Nodes:   0  40   0  41   9   9, Quantity: VELOCITY
   2 Nodes:  34  34   0  41   0  12, Quantity: VELOCITY
   3 Nodes:   0  40  10  10   0  12, Quantity: VELOCITY
   4 Nodes:   0  40  32  32   0  12, Quantity: VELOCITY


 Radiation Model Information

   Number of control angles  104
   Time step increment         3
   Angle increment             5
   Theta band N_phi   Solid angle
     1:        4     0.120
     2:       12     0.114
     3:       16     0.127
     4:       20     0.120
     5:       20     0.120
     6:       16     0.127
     7:       12     0.114
     8:        4     0.120
   Using gray gas absorption.
   Mean beam length  0.100 m
 
 

 Run Time Diagnostics

       Time Step       1   May  4, 2021  16:10:46
       Step Size:    0.228E+00 s, Total Time:       0.23 s
       Pressure Iterations:      1
       Maximum Velocity Error:  0.15E-02 on Mesh   1 at (   4  17   9)
       Maximum Pressure Error:  0.74E-05 on Mesh   1 at (   1  20  11)
       ---------------------------------------------------------------
       Max CFL number:  0.18E-01 at (  38,  39,   6)
       Max divergence:  0.13E-05 at (  29,  13,   6)
       Min divergence: -0.12E-05 at (   6,  24,  11)
       Poisson Pert. : -0.23E-06
       Max VN number:   0.12E-01 at (  33,  16,   4)
 
       Time Step       2   May  4, 2021  16:10:46
       Step Size:    0.228E+00 s, Total Time:       0.46 s
       Pressure Iterations:      2
       Maximum Velocity Error:  0.38E-01 on Mesh   1 at (   4  30   9)
       Maximum Pressure Error:  0.64E-03 on Mesh   1 at (  35  21  11)
       ---------------------------------------------------------------
       Max CFL number:  0.77E+00 at (   5,  30,  10)
       Max divergence:  0.16E-04 at (   5,  30,  11)
       Min divergence: -0.19E-04 at (   5,  11,   9)
       Max div. error:  0.96E-07 at (   5,  31,  10)
       Poisson Pert. :  0.33E-06
       Max VN number:   0.12E-01 at (  33,  16,   4)
 
       Time Step       3   May  4, 2021  16:10:47
       Step Size:    0.135E+00 s, Total Time:       0.59 s
       Pressure Iterations:      1
       Maximum Velocity Error:  0.90E-01 on Mesh   1 at (   4  10  10)
       Maximum Pressure Error:  0.64E-03 on Mesh   1 at (   5  30  10)
       ---------------------------------------------------------------
       Max CFL number:  0.88E+00 at (   5,  11,  10)
       Max divergence:  0.28E-04 at (   5,  30,  11)
       Min divergence: -0.33E-04 at (   5,  11,   9)
       Max div. error:  0.96E-07 at (   5,  30,  10)
       Poisson Pert. : -0.10E-06
       Max VN number:   0.27E+00 at (   5,  10,   9)
 
       Time Step       4   May  4, 2021  16:10:47
       Step Size:    0.106E+00 s, Total Time:       0.70 s
       Pressure Iterations:      1
       Maximum Velocity Error:  0.18E-01 on Mesh   1 at (   4  10  10)
       Maximum Pressure Error:  0.64E-03 on Mesh   1 at (   5  30  10)
       ---------------------------------------------------------------
       Max CFL number:  0.89E+00 at (   5,  31,  10)
       Max divergence:  0.35E-04 at (  34,  20,   9)
       Min divergence: -0.38E-04 at (   5,  10,   8)
       Max div. error:  0.54E-07 at (  33,  20,  10)
       Poisson Pert. : -0.15E-05
       Max VN number:   0.38E+00 at (   5,  10,   9)
 
       Time Step       5   May  4, 2021  16:10:47
       Step Size:    0.932E-01 s, Total Time:       0.79 s
       Pressure Iterations:      1
       Maximum Velocity Error:  0.17E-01 on Mesh   1 at (   4  32   9)
       Maximum Pressure Error:  0.49E-03 on Mesh   1 at (   5  30  10)
       ---------------------------------------------------------------
       Max CFL number:  0.90E+00 at (   5,  31,   9)
       Max divergence:  0.41E-04 at (  34,  20,   9)
       Min divergence: -0.40E-04 at (   5,  30,   8)
       Max div. error:  0.22E-06 at (   5,  12,  10)
       Poisson Pert. : -0.18E-05
       Max VN number:   0.40E+00 at (   5,  10,   9)
 
       Time Step       6   May  4, 2021  16:10:47
       Step Size:    0.932E-01 s, Total Time:       0.88 s
       Pressure Iterations:      1
       Maximum Velocity Error:  0.18E-01 on Mesh   1 at (   4  32   9)
       Maximum Pressure Error:  0.39E-03 on Mesh   1 at (   5  31  10)
       ---------------------------------------------------------------
       Max CFL number:  0.98E+00 at (   5,  30,   9)
       Max divergence:  0.45E-04 at (  34,  20,   9)
       Min divergence: -0.38E-04 at (   5,  30,   8)
       Max div. error:  0.38E-06 at (   5,  12,  10)
       Poisson Pert. : -0.17E-05
       Max VN number:   0.42E+00 at (   5,  10,   9)
 
       Time Step       7   May  4, 2021  16:10:47
       Step Size:    0.801E-01 s, Total Time:       0.96 s
       Pressure Iterations:      1
       Maximum Velocity Error:  0.17E-01 on Mesh   1 at (   4  30  10)
       Maximum Pressure Error:  0.41E-03 on Mesh   1 at (   5  30  10)
       ---------------------------------------------------------------
       Max CFL number:  0.90E+00 at (   5,  31,   9)
       Max divergence:  0.49E-04 at (  34,  20,   9)
       Min divergence: -0.35E-04 at (   6,  30,   8)
       Max div. error:  0.43E-06 at (   5,  12,  10)
       Poisson Pert. : -0.69E-06
       Max VN number:   0.36E+00 at (   5,  10,   9)
 
       Time Step       8   May  4, 2021  16:10:47
       Step Size:    0.801E-01 s, Total Time:       1.04 s
       Pressure Iterations:      1
       Maximum Velocity Error:  0.18E-01 on Mesh   1 at (   4  30   9)
       Maximum Pressure Error:  0.52E-03 on Mesh   1 at (   5  31  10)
       ---------------------------------------------------------------
       Max CFL number:  0.95E+00 at (   5,  30,   9)
       Max divergence:  0.52E-04 at (  34,  20,   9)
       Min divergence: -0.36E-04 at (   6,  30,   8)
       Max div. error:  0.39E-06 at (   5,  32,  10)
       Poisson Pert. :  0.51E-06
       Max VN number:   0.36E+00 at (   5,  31,  10)
 
       Time Step       9   May  4, 2021  16:10:47
       Step Size:    0.801E-01 s, Total Time:       1.12 s
       Pressure Iterations:      1
       Maximum Velocity Error:  0.22E-01 on Mesh   1 at (   4  30   9)
       Maximum Pressure Error:  0.64E-03 on Mesh   1 at (   5  31  10)
       ---------------------------------------------------------------
       Max CFL number:  0.99E+00 at (   5,  10,  10)
       Max divergence:  0.55E-04 at (  34,  20,   9)
       Min divergence: -0.35E-04 at (   6,  30,   8)
       Max div. error:  0.21E-06 at (   5,  32,  10)
       Poisson Pert. :  0.22E-05
       Max VN number:   0.35E+00 at (   5,  31,  10)
 
       Time Step      10   May  4, 2021  16:10:47
       Step Size:    0.703E-01 s, Total Time:       1.19 s
       Pressure Iterations:      1
       Maximum Velocity Error:  0.19E-01 on Mesh   1 at (   4  30   9)
       Maximum Pressure Error:  0.60E-03 on Mesh   1 at (   4  10  10)
       ---------------------------------------------------------------
       Max CFL number:  0.91E+00 at (   5,  31,   9)
       Max divergence:  0.57E-04 at (  34,  20,   9)
       Min divergence: -0.35E-04 at (   7,  10,   8)
       Max div. error:  0.53E-07 at (   5,  31,  10)
       Poisson Pert. :  0.37E-05
       Max VN number:   0.30E+00 at (   5,  31,  10)
 
       Time Step      20   May  4, 2021  16:10:47
       Step Size:    0.624E-01 s, Total Time:       1.85 s
       Pressure Iterations:      1
       Maximum Velocity Error:  0.81E-02 on Mesh   1 at (   4  11   9)
       Maximum Pressure Error:  0.23E-03 on Mesh   1 at (   5  11  10)
       ---------------------------------------------------------------
       Max CFL number:  0.94E+00 at (   5,  10,  10)
       Max divergence:  0.71E-04 at (  35,  20,   9)
       Min divergence: -0.41E-04 at (  10,  30,   8)
       Max div. error:  0.60E-06 at (   5,  32,  10)
       Poisson Pert. : -0.74E-05
       Max VN number:   0.35E+00 at (   5,  11,  10)
 
       Time Step      30   May  4, 2021  16:10:48
       Step Size:    0.624E-01 s, Total Time:       2.47 s
       Pressure Iterations:      1
       Maximum Velocity Error:  0.32E-02 on Mesh   1 at (   4  30  10)
       Maximum Pressure Error:  0.12E-03 on Mesh   1 at (  13  11  10)
       ---------------------------------------------------------------
       Max CFL number:  0.99E+00 at (   5,  10,  10)
       Max divergence:  0.79E-04 at (  35,  22,   9)
       Min divergence: -0.47E-04 at (  13,  11,   8)
       Max div. error:  0.23E-05 at (   5,  31,  10)
       Poisson Pert. :  0.27E-05
       Max VN number:   0.36E+00 at (   5,  11,   9)
 
       Time Step      40   May  4, 2021  16:10:48
       Step Size:    0.624E-01 s, Total Time:       3.10 s
       Pressure Iterations:      1
       Maximum Velocity Error:  0.63E-02 on Mesh   1 at (   4  10  10)
       Maximum Pressure Error:  0.17E-03 on Mesh   1 at (   4  12  10)
       ---------------------------------------------------------------
       Max CFL number:  0.10E+01 at (   5,  10,  10)
       Max divergence:  0.80E-04 at (  34,  20,   9)
       Min divergence: -0.42E-04 at (  17,  30,   8)
       Max div. error:  0.15E-05 at (   5,  32,  10)
       Poisson Pert. :  0.20E-04
       Max VN number:   0.35E+00 at (   5,  10,   9)
 
       Time Step      50   May  4, 2021  16:10:48
       Step Size:    0.624E-01 s, Total Time:       3.72 s
       Pressure Iterations:      1
       Maximum Velocity Error:  0.20E-02 on Mesh   1 at (   4  10  10)
       Maximum Pressure Error:  0.16E-03 on Mesh   1 at (  20  11  11)
       ---------------------------------------------------------------
       Max CFL number:  0.10E+01 at (   5,  10,  10)
       Max divergence:  0.84E-04 at (  35,  20,   9)
       Min divergence: -0.47E-04 at (  20,  30,   8)
       Max div. error:  0.36E-05 at (   5,  32,  10)
       Poisson Pert. : -0.43E-04
       Max VN number:   0.34E+00 at (   5,  10,  10)
 
       Time Step      60   May  4, 2021  16:10:49
       Step Size:    0.561E-01 s, Total Time:       4.30 s
       Pressure Iterations:      1
       Maximum Velocity Error:  0.29E-02 on Mesh   1 at (   4  10   9)
       Maximum Pressure Error:  0.17E-03 on Mesh   1 at (   4  10   9)
       ---------------------------------------------------------------
       Max CFL number:  0.90E+00 at (   5,  11,  10)
       Max divergence:  0.92E-04 at (  35,  22,   9)
       Min divergence: -0.51E-04 at (  23,  11,   8)
       Max div. error:  0.11E-04 at (   5,  31,  10)
       Poisson Pert. :  0.47E-04
       Max VN number:   0.31E+00 at (   5,  11,  10)
 
       Time Step      70   May  4, 2021  16:10:49
       Step Size:    0.561E-01 s, Total Time:       4.86 s
       Pressure Iterations:      1
       Maximum Velocity Error:  0.20E-02 on Mesh   1 at (   4  11   9)
       Maximum Pressure Error:  0.12E-03 on Mesh   1 at (  26  10  11)
       ---------------------------------------------------------------
       Max CFL number:  0.90E+00 at (   5,  31,  10)
       Max divergence:  0.10E-03 at (  35,  20,   9)
       Min divergence: -0.57E-04 at (  26,  31,   8)
       Max div. error:  0.18E-04 at (   5,  32,  10)
       Poisson Pert. : -0.15E-04
       Max VN number:   0.32E+00 at (   5,  31,   9)
 
       Time Step      80   May  4, 2021  16:10:50
       Step Size:    0.561E-01 s, Total Time:       5.42 s
       Pressure Iterations:      1
       Maximum Velocity Error:  0.22E-02 on Mesh   1 at (   4  10  10)
       Maximum Pressure Error:  0.22E-03 on Mesh   1 at (  23  31  10)
       ---------------------------------------------------------------
       Max CFL number:  0.90E+00 at (   5,  10,  10)
       Max divergence:  0.11E-03 at (  35,  22,   9)
       Min divergence: -0.74E-04 at (  34,  20,  11)
       Max div. error:  0.22E-04 at (   5,  31,  10)
       Poisson Pert. : -0.85E-04
       Max VN number:   0.32E+00 at (   5,  10,   9)
       Radiation Loss to Boundaries:        -0.001 kW
 
       Time Step      90   May  4, 2021  16:10:50
       Step Size:    0.561E-01 s, Total Time:       5.98 s
       Pressure Iterations:      1
       Maximum Velocity Error:  0.23E-02 on Mesh   1 at (   4  30  10)
       Maximum Pressure Error:  0.41E-03 on Mesh   1 at (  29  30  10)
       ---------------------------------------------------------------
       Max CFL number:  0.90E+00 at (   5,  10,  10)
       Max divergence:  0.98E-04 at (  35,  20,   9)
       Min divergence: -0.65E-04 at (  29,  31,  10)
       Max div. error:  0.12E-04 at (   5,  32,  10)
       Poisson Pert. :  0.27E-03
       Max VN number:   0.31E+00 at (   5,  11,  10)
       Radiation Loss to Boundaries:         0.002 kW
 
       Time Step     100   May  4, 2021  16:10:50
       Step Size:    0.561E-01 s, Total Time:       6.54 s
       Pressure Iterations:      1
       Maximum Velocity Error:  0.25E-02 on Mesh   1 at (   4  30   9)
       Maximum Pressure Error:  0.68E-03 on Mesh   1 at (  29  30  10)
       ---------------------------------------------------------------
       Max CFL number:  0.90E+00 at (   5,  11,   9)
       Max divergence:  0.11E-03 at (  34,  20,   9)
       Min divergence: -0.88E-04 at (  34,  22,  11)
       Max div. error:  0.26E-04 at (   5,  32,  10)
       Poisson Pert. : -0.53E-03
       Max VN number:   0.31E+00 at (   5,  11,   9)
       Radiation Loss to Boundaries:        -0.003 kW
 
       Time Step     200   May  4, 2021  16:10:54
       Step Size:    0.324E-01 s, Total Time:      11.49 s
       Pressure Iterations:      1
       Maximum Velocity Error:  0.52E-01 on Mesh   1 at (  35  21  11)
       Maximum Pressure Error:  0.50E-01 on Mesh   1 at (   1  41   1)
       ---------------------------------------------------------------
       Max CFL number:  0.89E+00 at (   5,  30,  10)
       Max divergence:  0.51E-02 at (  34,  20,   9)
       Min divergence: -0.49E-02 at (   5,  32,  10)
       Max div. error:  0.45E-02 at (   5,  32,  10)
       Poisson Pert. :  0.17E-01
       Max VN number:   0.31E+00 at (   5,  31,  10)
       Radiation Loss to Boundaries:         0.182 kW
 
       Time Step     300   May  4, 2021  16:10:59
       Step Size:    0.190E-01 s, Total Time:      13.78 s
       Pressure Iterations:      1
       Maximum Velocity Error:  0.74E-01 on Mesh   1 at (   4  31   9)
       Maximum Pressure Error:  0.32E+01 on Mesh   1 at (   1   1  12)
       ---------------------------------------------------------------
       Max CFL number:  0.81E+00 at (  11,  11,  10)
       Max divergence:  0.83E-02 at (  34,  20,  11)
       Min divergence: -0.96E-02 at (   5,  30,   9)
       Max div. error:  0.55E-02 at (   5,  12,  10)
       Poisson Pert. : -0.17E+00
       Max VN number:   0.24E+00 at (  11,  11,  10)
       Radiation Loss to Boundaries:        -0.746 kW
 
       Time Step     400   May  4, 2021  16:11:03
       Step Size:    0.839E-02 s, Total Time:      15.05 s
       Pressure Iterations:      4
       Maximum Velocity Error:  0.20E+00 on Mesh   1 at (   1  21   8)
       Maximum Pressure Error:  0.29E+01 on Mesh   1 at (  33  20  12)
       ---------------------------------------------------------------
       Max CFL number:  0.91E+00 at (   5,  11,  10)
       Max divergence:  0.40E-01 at (  35,  23,  11)
       Min divergence: -0.45E-01 at (   5,  12,   9)
       Max div. error:  0.38E-01 at (   5,  30,  10)
       Poisson Pert. :  0.24E-01
       Max VN number:   0.38E+00 at (   5,  30,  10)
       Radiation Loss to Boundaries:        -0.205 kW
 
       Time Step     500   May  4, 2021  16:11:07
       Step Size:    0.872E-02 s, Total Time:      15.96 s
       Pressure Iterations:      4
       Maximum Velocity Error:  0.21E+00 on Mesh   1 at (   1  21   8)
       Maximum Pressure Error:  0.19E+03 on Mesh   1 at (  40   1   1)
       ---------------------------------------------------------------
       Max CFL number:  0.96E+00 at (   5,  31,  10)
       Max divergence:  0.48E-01 at (   8,  11,  10)
       Min divergence: -0.53E-01 at (  36,  22,  11)
       Max div. error:  0.40E-01 at (   5,  32,   9)
       Poisson Pert. : -0.39E+00
       Max VN number:   0.40E+00 at (   5,  11,  10)
       Radiation Loss to Boundaries:        -0.611 kW
 
       Time Step     600   May  4, 2021  16:11:12
       Step Size:    0.567E-02 s, Total Time:      16.65 s
       Pressure Iterations:      4
       Maximum Velocity Error:  0.31E+00 on Mesh   1 at (   1  21  11)
       Maximum Pressure Error:  0.13E+03 on Mesh   1 at (  40   1  12)
       ---------------------------------------------------------------
       Max CFL number:  0.90E+00 at (   5,  31,  10)
       Max divergence:  0.67E-01 at (  11,  11,  10)
       Min divergence: -0.66E-01 at (  37,  22,  10)
       Max div. error:  0.58E-01 at (   2,  22,   8)
       Poisson Pert. :  0.29E+00
       Max VN number:   0.44E+00 at (   5,  11,   9)
       Radiation Loss to Boundaries:         0.895 kW
 
       Time Step     700   May  4, 2021  16:11:17
       Step Size:    0.598E-02 s, Total Time:      17.23 s
       Pressure Iterations:      4
       Maximum Velocity Error:  0.15E+00 on Mesh   1 at (   1  21   8)
       Maximum Pressure Error:  0.12E+02 on Mesh   1 at (   1   1  12)
       ---------------------------------------------------------------
       Max CFL number:  0.84E+00 at (  16,  30,   9)
       Max divergence:  0.33E-01 at (  12,  11,  10)
       Min divergence: -0.39E-01 at (   5,  30,  12)
       Max div. error:  0.28E-01 at (   5,  32,   9)
       Poisson Pert. :  0.88E+00
       Max VN number:   0.27E+00 at (  15,  30,   9)
       Radiation Loss to Boundaries:         1.502 kW
 
       Time Step     800   May  4, 2021  16:11:21
       Step Size:    0.553E-02 s, Total Time:      17.73 s
       Pressure Iterations:      2
       Maximum Velocity Error:  0.71E-01 on Mesh   1 at (  35  21  11)
       Maximum Pressure Error:  0.67E+01 on Mesh   1 at (   1   1   1)
       ---------------------------------------------------------------
       Max CFL number:  0.81E+00 at (  19,  31,  10)
       Max divergence:  0.29E-01 at (  34,  22,  11)
       Min divergence: -0.12E-01 at (   5,  11,   9)
       Max div. error:  0.74E-02 at (   6,  31,  10)
       Poisson Pert. :  0.12E+01
       Max VN number:   0.26E+00 at (  19,  31,   9)
       Radiation Loss to Boundaries:         1.807 kW
 
       Time Step     900   May  4, 2021  16:11:26
       Step Size:    0.501E-02 s, Total Time:      18.16 s
       Pressure Iterations:      4
       Maximum Velocity Error:  0.12E+00 on Mesh   1 at (  35  21  11)
       Maximum Pressure Error:  0.21E+02 on Mesh   1 at (   1   1   1)
       ---------------------------------------------------------------
       Max CFL number:  0.84E+00 at (  19,  31,  10)
       Max divergence:  0.59E-01 at (  35,  22,  11)
       Min divergence: -0.44E-01 at (   5,  11,   9)
       Max div. error:  0.22E-01 at (   6,  31,  10)
       Poisson Pert. :  0.16E+01
       Max VN number:   0.27E+00 at (  19,  31,  10)
       Radiation Loss to Boundaries:         1.968 kW
 
       Time Step    1000   May  4, 2021  16:11:31
       Step Size:    0.431E-02 s, Total Time:      18.52 s
       Pressure Iterations:      3
       Maximum Velocity Error:  0.10E+00 on Mesh   1 at (  35  21  11)
       Maximum Pressure Error:  0.22E+02 on Mesh   1 at (   1   1   1)
       ---------------------------------------------------------------
       Max CFL number:  0.85E+00 at (  20,  30,   9)
       Max divergence:  0.51E-01 at (  34,  22,  11)
       Min divergence: -0.29E-01 at (   5,  11,   9)
       Max div. error:  0.16E-01 at (   5,  31,  10)
       Poisson Pert. :  0.21E+01
       Max VN number:   0.27E+00 at (  19,  31,  10)
       Radiation Loss to Boundaries:         2.229 kW
 
       Time Step    1100   May  4, 2021  16:11:36
       Step Size:    0.337E-02 s, Total Time:      18.83 s
       Pressure Iterations:      2
       Maximum Velocity Error:  0.11E+00 on Mesh   1 at (   4  31   9)
       Maximum Pressure Error:  0.11E+02 on Mesh   1 at (  40   1  12)
       ---------------------------------------------------------------
       Max CFL number:  0.80E+00 at (  18,  31,  10)
       Max divergence:  0.25E-01 at (   9,  31,  10)
       Min divergence: -0.39E-01 at (   5,  30,  12)
       Max div. error:  0.10E-01 at (   3,  22,  11)
       Poisson Pert. :  0.27E+01
       Max VN number:   0.26E+00 at (  18,  31,  10)
       Radiation Loss to Boundaries:         2.493 kW
 
       Time Step    1200   May  4, 2021  16:11:40
       Step Size:    0.305E-02 s, Total Time:      19.11 s
       Pressure Iterations:      4
       Maximum Velocity Error:  0.43E+00 on Mesh   1 at (   1  21  11)
       Maximum Pressure Error:  0.12E+03 on Mesh   1 at (   1   1  12)
       ---------------------------------------------------------------
       Max CFL number:  0.90E+00 at (  16,  30,   9)
       Max divergence:  0.11E+00 at (  34,  20,  11)
       Min divergence: -0.11E+00 at (   5,  30,  12)
       Max div. error:  0.79E-01 at (   3,  22,   8)
       Poisson Pert. :  0.30E+01
       Max VN number:   0.38E+00 at (   5,  11,   9)
       Radiation Loss to Boundaries:         2.571 kW
 
       Time Step    1230   May  4, 2021  16:11:42
       Step Size:    0.715E-03 s, Total Time:      19.19 s
       Pressure Iterations:      8
       Maximum Velocity Error:  0.32E+03 on Mesh   1 at (  12  21  12)
       Maximum Pressure Error:  0.25E+06 on Mesh   1 at (   1   1  12)
       ---------------------------------------------------------------
       Max CFL number:  0.16E+03 at (   5,  30,  10)
       Max divergence:  0.91E+03 at (   5,  30,  11)
       Min divergence: -0.13E+04 at (   5,  31,  10)
       Max div. error:  0.45E+02 at (   5,  32,  10)
       Poisson Pert. : -0.63E+05
       Max VN number:   0.17E+00 at (   5,  30,   9)
       Radiation Loss to Boundaries:         4.224 kW
 


 Time Stepping Wall Clock Time (s):       55.469
 Total Elapsed Wall Clock Time (s):       56.725

ERROR: Numerical Instability - FDS stopped (CHID: smoke_control)
