
 Fire Dynamics Simulator

 Current Date     : May  8, 2021  16:44:50
 Revision         : FDS6.7.4-0-gbfaa110-release
 Revision Date    : Fri Mar 6 10:17:46 2020 -0500
 Compiler         : Intel ifort 19.0.4.243
 Compilation Date : Mar 09, 2020 16:12:17

 MPI Enabled;    Number of MPI Processes:       1
 OpenMP Enabled; Number of OpenMP Threads:      4

 MPI version: 3.1
 MPI library version: Intel(R) MPI Library 2019 Update 4 for Linux* OS


 Job TITLE        : 
 Job ID string    : smoke_control


 Grid Dimensions, Mesh     1

   Cells in the X Direction            40
   Cells in the Y Direction            41
   Cells in the Z Direction            12
   Number of Grid Cells             19680


 Physical Dimensions, Mesh     1

   Length (m)                      10.000
   Width  (m)                      10.250
   Height (m)                       3.000
   Initial Time Step (s)            0.228

Total Number of Grid Cells         19680


 Miscellaneous Parameters

   Simulation Start Time (s)          0.0
   Simulation End Time (s)          100.0
   LES Calculation
   Eddy Viscosity:           Deardorff Model (C_DEARDORFF = 0.10)
   Near-wall Eddy Viscosity: Smagorinsky with Van Driest damping (C_SMAGORINSKY = 0.20)
   Turbulent Prandtl Number:         0.50
   Turbulent Schmidt Number:         0.50
   Ambient Temperature (C):         20.00


 Mass Fraction Transformation Matrix to Convert Species Mixtures (Columns) to Primitive Species (Rows)

                         AIR     
   NITROGEN              0.762470
   OXYGEN                0.230997
   CARBON DIOXIDE        0.000591
   WATER VAPOR           0.005941


 Primitive Species Information

   NITROGEN
   Gas Species
   Molecular Weight (g/mol)            28.01340
   Ambient Density (kg/m^3)            1.165
   Enthalpy of Formation (J/kg)        0.00E+00

   OXYGEN
   Gas Species
   Molecular Weight (g/mol)            31.99880
   Ambient Density (kg/m^3)            1.330
   Enthalpy of Formation (J/kg)        0.00E+00

   CARBON DIOXIDE
   Gas Species
   Molecular Weight (g/mol)            44.00950
   Ambient Density (kg/m^3)            1.830
   Enthalpy of Formation (J/kg)       -8.94E+06

   WATER VAPOR
   Gas Species
   Molecular Weight (g/mol)            18.01528
   Ambient Density (kg/m^3)            0.749
   Enthalpy of Formation (J/kg)       -1.34E+07


 Tracked (Lumped) Species Information

   AIR
   Molecular Weight (g/mol)            28.75199
   Ambient Density (kg/m^3)            1.195
   Initial Mass Fraction               1.000
   Enthalpy of Formation (J/kg)     -8.50E+04

   Sub Species                    Mass Fraction     Mole Fraction
   NITROGEN                       7.624701E-01      7.825730E-01
   OXYGEN                         2.309974E-01      2.075589E-01
   CARBON DIOXIDE                 5.914651E-04      3.864120E-04
   WATER VAPOR                    5.940984E-03      9.481679E-03
 
     Viscosity (kg/m/s) Ambient,  293 K:  1.80E-05
                                  500 K:  2.61E-05
                                 1000 K:  4.13E-05
                                 1500 K:  5.37E-05
   Therm. Cond. (W/m/K) Ambient,  293 K:  2.56E-02
                                  500 K:  3.81E-02
                                 1000 K:  6.69E-02
                                 1500 K:  9.25E-02
        Enthalpy (J/kg) Ambient,  293 K: -9.01E+04
                                  500 K:  1.22E+05
                                 1000 K:  6.72E+05
                                 1500 K:  1.27E+06
    Spec. Heat (J/kg/K) Ambient,  293 K:  1.02E+03
                                  500 K:  1.04E+03
                                 1000 K:  1.16E+03
                                 1500 K:  1.23E+03
   Diff. Coeff. (m^2/s) Ambient,  293 K:  1.99E-05
                                  500 K:  4.96E-05
                                 1000 K:  1.58E-04
                                 1500 K:  3.09E-04


 Material Information


 Surface Conditions

   0 INERT (DEFAULT)

   1 DUCT_ENCLOSURE

   2 OPEN
     Passive Vent to Atmosphere

   3 MIRROR
     Symmetry Plane

   4 INTERPOLATED

   5 PERIODIC

   6 HVAC

   7 MASSLESS TRACER

   8 DROPLET

   9 EVACUATION_OUTFLOW
     Normal Velocity (m/s)         0.000

  10 MASSLESS TARGET

  11 PERIODIC WIND

  12 SLICE


 Device Coordinates

     1 Coords:      0.000000     -5.125000      0.000000, Make: null, ID: DUCT_FLOW_RATE, Quantity: VELOCITY


 Slice File Information, Mesh     1

   Sampling Interval (s)             0.100

   1 Nodes:   0  40   0  41   9   9, Quantity: VELOCITY
   2 Nodes:   0  40   0  41   9   9, Quantity: U-VELOCITY
   3 Nodes:   0  40   0  41   9   9, Quantity: V-VELOCITY
   4 Nodes:   0  40   0  41   9   9, Quantity: W-VELOCITY
   5 Nodes:  34  34   0  41   0  12, Quantity: VELOCITY
   6 Nodes:  34  34   0  41   0  12, Quantity: U-VELOCITY
   7 Nodes:  34  34   0  41   0  12, Quantity: V-VELOCITY
   8 Nodes:  34  34   0  41   0  12, Quantity: W-VELOCITY
   9 Nodes:   0  40  10  10   0  12, Quantity: VELOCITY
  10 Nodes:   0  40  10  10   0  12, Quantity: U-VELOCITY
  11 Nodes:   0  40  10  10   0  12, Quantity: V-VELOCITY
  12 Nodes:   0  40  10  10   0  12, Quantity: W-VELOCITY
  13 Nodes:   0  40  32  32   0  12, Quantity: VELOCITY
  14 Nodes:   0  40  32  32   0  12, Quantity: U-VELOCITY
  15 Nodes:   0  40  32  32   0  12, Quantity: V-VELOCITY
  16 Nodes:   0  40  32  32   0  12, Quantity: W-VELOCITY


 Radiation Model Information

   Number of control angles  104
   Time step increment         3
   Angle increment             5
   Theta band N_phi   Solid angle
     1:        4     0.120
     2:       12     0.114
     3:       16     0.127
     4:       20     0.120
     5:       20     0.120
     6:       16     0.127
     7:       12     0.114
     8:        4     0.120
   Using gray gas absorption.
   Mean beam length  0.100 m
 
 

 Run Time Diagnostics

       Time Step       1   May  8, 2021  16:44:50
       Step Size:    0.228E+00 s, Total Time:       0.23 s
       Pressure Iterations:      1
       Maximum Velocity Error:  0.15E-02 on Mesh   1 at (   4  17   9)
       Maximum Pressure Error:  0.72E-05 on Mesh   1 at (   1  20  11)
       ---------------------------------------------------------------
       Max CFL number:  0.18E-01 at (  38,  39,   6)
       Max divergence:  0.13E-05 at (  29,  13,   6)
       Min divergence: -0.12E-05 at (   6,  24,  11)
       Poisson Pert. : -0.23E-07
       Max VN number:   0.12E-01 at (  33,  16,   4)
 
       Time Step       2   May  8, 2021  16:44:50
       Step Size:    0.228E+00 s, Total Time:       0.46 s
       Pressure Iterations:      2
       Maximum Velocity Error:  0.39E-01 on Mesh   1 at (   4  10   9)
       Maximum Pressure Error:  0.64E-03 on Mesh   1 at (  35  21  11)
       ---------------------------------------------------------------
       Max CFL number:  0.77E+00 at (   5,  11,  10)
       Max divergence:  0.16E-04 at (   5,  33,  11)
       Min divergence: -0.19E-04 at (   5,  11,   9)
       Max div. error:  0.67E-07 at (   5,  32,  10)
       Poisson Pert. :  0.22E-06
       Max VN number:   0.12E-01 at (  33,  16,   4)
 
       Time Step       3   May  8, 2021  16:44:50
       Step Size:    0.136E+00 s, Total Time:       0.59 s
       Pressure Iterations:      1
       Maximum Velocity Error:  0.89E-01 on Mesh   1 at (   4  33  10)
       Maximum Pressure Error:  0.63E-03 on Mesh   1 at (   5  11  10)
       ---------------------------------------------------------------
       Max CFL number:  0.88E+00 at (   5,  32,  10)
       Max divergence:  0.28E-04 at (   5,  33,  11)
       Min divergence: -0.33E-04 at (   5,  11,   9)
       Max div. error:  0.14E-06 at (   5,  32,  10)
       Poisson Pert. :  0.43E-06
       Max VN number:   0.26E+00 at (   5,  33,   9)
 
       Time Step       4   May  8, 2021  16:44:50
       Step Size:    0.106E+00 s, Total Time:       0.70 s
       Pressure Iterations:      1
       Maximum Velocity Error:  0.19E-01 on Mesh   1 at (   4  33  10)
       Maximum Pressure Error:  0.62E-03 on Mesh   1 at (   5  11  10)
       ---------------------------------------------------------------
       Max CFL number:  0.89E+00 at (   5,  11,   9)
       Max divergence:  0.35E-04 at (  34,  20,   9)
       Min divergence: -0.38E-04 at (   5,  10,   8)
       Max div. error:  0.16E-06 at (   5,  32,  10)
       Poisson Pert. :  0.12E-06
       Max VN number:   0.38E+00 at (   5,  10,   9)
 
       Time Step       5   May  8, 2021  16:44:50
       Step Size:    0.932E-01 s, Total Time:       0.79 s
       Pressure Iterations:      1
       Maximum Velocity Error:  0.16E-01 on Mesh   1 at (   4  12   9)
       Maximum Pressure Error:  0.47E-03 on Mesh   1 at (   5  11  10)
       ---------------------------------------------------------------
       Max CFL number:  0.90E+00 at (   5,  11,   9)
       Max divergence:  0.40E-04 at (  34,  20,   9)
       Min divergence: -0.40E-04 at (   5,  10,   8)
       Max div. error:  0.14E-06 at (   5,  32,  10)
       Poisson Pert. : -0.21E-06
       Max VN number:   0.40E+00 at (   5,  33,  10)
 
       Time Step       6   May  8, 2021  16:44:50
       Step Size:    0.932E-01 s, Total Time:       0.88 s
       Pressure Iterations:      1
       Maximum Velocity Error:  0.18E-01 on Mesh   1 at (   4  31   9)
       Maximum Pressure Error:  0.38E-03 on Mesh   1 at (   5  10  10)
       ---------------------------------------------------------------
       Max CFL number:  0.98E+00 at (   5,  32,   9)
       Max divergence:  0.45E-04 at (  34,  20,   9)
       Min divergence: -0.38E-04 at (   5,  10,   8)
       Max div. error:  0.58E-07 at (   5,  32,  10)
       Poisson Pert. : -0.95E-06
       Max VN number:   0.42E+00 at (   5,  33,  10)
 
       Time Step       7   May  8, 2021  16:44:50
       Step Size:    0.801E-01 s, Total Time:       0.96 s
       Pressure Iterations:      1
       Maximum Velocity Error:  0.17E-01 on Mesh   1 at (   4  10  10)
       Maximum Pressure Error:  0.41E-03 on Mesh   1 at (   5  11  10)
       ---------------------------------------------------------------
       Max CFL number:  0.90E+00 at (   5,  11,   9)
       Max divergence:  0.49E-04 at (  34,  20,   9)
       Min divergence: -0.35E-04 at (   6,  33,   8)
       Max div. error:  0.53E-07 at (   5,  34,   9)
       Poisson Pert. : -0.14E-05
       Max VN number:   0.36E+00 at (   5,  33,  10)
 
       Time Step       8   May  8, 2021  16:44:50
       Step Size:    0.801E-01 s, Total Time:       1.04 s
       Pressure Iterations:      1
       Maximum Velocity Error:  0.18E-01 on Mesh   1 at (   4  11  10)
       Maximum Pressure Error:  0.52E-03 on Mesh   1 at (   5  11  10)
       ---------------------------------------------------------------
       Max CFL number:  0.95E+00 at (   5,  10,   9)
       Max divergence:  0.52E-04 at (  34,  20,   9)
       Min divergence: -0.36E-04 at (   6,  33,   8)
       Max div. error:  0.17E-06 at (   5,  34,   9)
       Poisson Pert. : -0.16E-05
       Max VN number:   0.36E+00 at (   5,  33,  10)
 
       Time Step       9   May  8, 2021  16:44:50
       Step Size:    0.801E-01 s, Total Time:       1.12 s
       Pressure Iterations:      1
       Maximum Velocity Error:  0.22E-01 on Mesh   1 at (   4  32   9)
       Maximum Pressure Error:  0.64E-03 on Mesh   1 at (   5  11  10)
       ---------------------------------------------------------------
       Max CFL number:  0.99E+00 at (   5,  10,  10)
       Max divergence:  0.55E-04 at (  34,  20,   9)
       Min divergence: -0.35E-04 at (   6,  33,   8)
       Max div. error:  0.26E-06 at (   5,  34,  10)
       Poisson Pert. : -0.11E-05
       Max VN number:   0.35E+00 at (   5,  32,  10)
 
       Time Step      10   May  8, 2021  16:44:50
       Step Size:    0.703E-01 s, Total Time:       1.20 s
       Pressure Iterations:      1
       Maximum Velocity Error:  0.19E-01 on Mesh   1 at (   4  32   9)
       Maximum Pressure Error:  0.60E-03 on Mesh   1 at (   4  33  10)
       ---------------------------------------------------------------
       Max CFL number:  0.91E+00 at (   5,  32,   9)
       Max divergence:  0.58E-04 at (  34,  20,   9)
       Min divergence: -0.35E-04 at (   7,  32,   8)
       Max div. error:  0.30E-06 at (   5,  34,  10)
       Poisson Pert. : -0.58E-06
       Max VN number:   0.30E+00 at (   5,  32,  10)
 
       Time Step      20   May  8, 2021  16:44:50
       Step Size:    0.624E-01 s, Total Time:       1.85 s
       Pressure Iterations:      1
       Maximum Velocity Error:  0.82E-02 on Mesh   1 at (   4  11   9)
       Maximum Pressure Error:  0.23E-03 on Mesh   1 at (   4  32  10)
       ---------------------------------------------------------------
       Max CFL number:  0.94E+00 at (   5,  10,  10)
       Max divergence:  0.71E-04 at (  35,  22,   9)
       Min divergence: -0.40E-04 at (  10,  11,   8)
       Max div. error:  0.23E-06 at (   5,  32,  10)
       Poisson Pert. : -0.10E-05
       Max VN number:   0.35E+00 at (   5,  32,  10)
 
       Time Step      30   May  8, 2021  16:44:51
       Step Size:    0.624E-01 s, Total Time:       2.48 s
       Pressure Iterations:      1
       Maximum Velocity Error:  0.28E-02 on Mesh   1 at (   4  32  10)
       Maximum Pressure Error:  0.13E-03 on Mesh   1 at (  13  32  10)
       ---------------------------------------------------------------
       Max CFL number:  0.98E+00 at (   5,  33,  10)
       Max divergence:  0.76E-04 at (  35,  22,   9)
       Min divergence: -0.45E-04 at (  13,  32,   8)
       Poisson Pert. :  0.23E-05
       Max VN number:   0.36E+00 at (   5,  32,   9)
 
       Time Step      40   May  8, 2021  16:44:51
       Step Size:    0.624E-01 s, Total Time:       3.10 s
       Pressure Iterations:      1
       Maximum Velocity Error:  0.64E-02 on Mesh   1 at (   4  10  10)
       Maximum Pressure Error:  0.15E-03 on Mesh   1 at (   4  31  10)
       ---------------------------------------------------------------
       Max CFL number:  0.10E+01 at (   5,  33,  10)
       Max divergence:  0.79E-04 at (  34,  20,   9)
       Min divergence: -0.41E-04 at (  17,  32,   8)
       Max div. error:  0.31E-06 at (   5,  34,  10)
       Poisson Pert. : -0.21E-05
       Max VN number:   0.35E+00 at (   5,  33,   9)
 
       Time Step      50   May  8, 2021  16:44:52
       Step Size:    0.624E-01 s, Total Time:       3.72 s
       Pressure Iterations:      1
       Maximum Velocity Error:  0.22E-02 on Mesh   1 at (   4  33  10)
       Maximum Pressure Error:  0.12E-03 on Mesh   1 at (  19  10   9)
       ---------------------------------------------------------------
       Max CFL number:  0.10E+01 at (   5,  33,  10)
       Max divergence:  0.80E-04 at (  35,  22,   9)
       Min divergence: -0.45E-04 at (  20,  11,   8)
       Max div. error:  0.43E-06 at (   5,  33,  10)
       Poisson Pert. :  0.67E-06
       Max VN number:   0.34E+00 at (   5,  33,  10)
 
       Time Step      60   May  8, 2021  16:44:52
       Step Size:    0.624E-01 s, Total Time:       4.35 s
       Pressure Iterations:      1
       Maximum Velocity Error:  0.22E-02 on Mesh   1 at (   4  33   9)
       Maximum Pressure Error:  0.13E-03 on Mesh   1 at (   4  33  10)
       ---------------------------------------------------------------
       Max CFL number:  0.10E+01 at (   5,  11,  10)
       Max divergence:  0.82E-04 at (  35,  20,   9)
       Min divergence: -0.39E-04 at (  23,  33,   8)
       Max div. error:  0.33E-06 at (   5,  34,  10)
       Poisson Pert. :  0.14E-05
       Max VN number:   0.34E+00 at (   5,  32,  10)
 
       Time Step      70   May  8, 2021  16:44:52
       Step Size:    0.624E-01 s, Total Time:       4.97 s
       Pressure Iterations:      1
       Maximum Velocity Error:  0.36E-02 on Mesh   1 at (   4  33  10)
       Maximum Pressure Error:  0.11E-03 on Mesh   1 at (  21  32  12)
       ---------------------------------------------------------------
       Max CFL number:  0.10E+01 at (   5,  32,  10)
       Max divergence:  0.85E-04 at (  35,  20,   9)
       Min divergence: -0.35E-04 at (  27,  11,   8)
       Max div. error:  0.21E-07 at (   5,  33,  10)
       Poisson Pert. : -0.29E-05
       Max VN number:   0.35E+00 at (   5,  32,  10)
 
       Time Step      80   May  8, 2021  16:44:53
       Step Size:    0.624E-01 s, Total Time:       5.60 s
       Pressure Iterations:      1
       Maximum Velocity Error:  0.27E-02 on Mesh   1 at (   4  10  10)
       Maximum Pressure Error:  0.11E-03 on Mesh   1 at (  29  10  10)
       ---------------------------------------------------------------
       Max CFL number:  0.10E+01 at (   5,  10,   9)
       Max divergence:  0.85E-04 at (  35,  22,   9)
       Min divergence: -0.34E-04 at (  34,  20,  11)
       Max div. error:  0.32E-06 at (   5,  33,  10)
       Poisson Pert. :  0.28E-05
       Max VN number:   0.35E+00 at (   5,  11,   9)
 
       Time Step      90   May  8, 2021  16:44:53
       Step Size:    0.624E-01 s, Total Time:       6.22 s
       Pressure Iterations:      1
       Maximum Velocity Error:  0.75E-03 on Mesh   1 at (   4  33  10)
       Maximum Pressure Error:  0.13E-03 on Mesh   1 at (  26  11  10)
       ---------------------------------------------------------------
       Max CFL number:  0.10E+01 at (   5,  33,   9)
       Max divergence:  0.84E-04 at (  35,  20,   9)
       Min divergence: -0.43E-04 at (  30,  32,  10)
       Max div. error:  0.50E-06 at (   5,  34,  10)
       Poisson Pert. : -0.88E-06
       Max VN number:   0.35E+00 at (   5,  33,   9)
 
       Time Step     100   May  8, 2021  16:44:53
       Step Size:    0.624E-01 s, Total Time:       6.84 s
       Pressure Iterations:      1
       Maximum Velocity Error:  0.10E-02 on Mesh   1 at (   4  33   9)
       Maximum Pressure Error:  0.11E-03 on Mesh   1 at (  29  11  10)
       ---------------------------------------------------------------
       Max CFL number:  0.10E+01 at (   5,  10,  10)
       Max divergence:  0.84E-04 at (  34,  22,   9)
       Min divergence: -0.48E-04 at (  33,  11,  10)
       Max div. error:  0.42E-06 at (   5,  33,  10)
       Poisson Pert. : -0.11E-05
       Max VN number:   0.35E+00 at (   5,  10,  10)
 
       Time Step     200   May  8, 2021  16:44:57
       Step Size:    0.562E-01 s, Total Time:      13.08 s
       Pressure Iterations:      1
       Maximum Velocity Error:  0.47E-02 on Mesh   1 at (  35  21  10)
       Maximum Pressure Error:  0.27E-03 on Mesh   1 at (  37  21  11)
       ---------------------------------------------------------------
       Max CFL number:  0.90E+00 at (   5,  32,  10)
       Max divergence:  0.10E-03 at (  33,  20,  10)
       Min divergence: -0.12E-03 at (  40,   9,   5)
       Max div. error:  0.48E-06 at (   5,  34,  10)
       Poisson Pert. : -0.75E-05
       Max VN number:   0.31E+00 at (   5,  33,   9)
 
       Time Step     300   May  8, 2021  16:45:02
       Step Size:    0.562E-01 s, Total Time:      18.70 s
       Pressure Iterations:      1
       Maximum Velocity Error:  0.21E-02 on Mesh   1 at (  40  21  10)
       Maximum Pressure Error:  0.17E-03 on Mesh   1 at (  40  21   8)
       ---------------------------------------------------------------
       Max CFL number:  0.90E+00 at (   5,  33,   9)
       Max divergence:  0.76E-04 at (  33,  22,  10)
       Min divergence: -0.93E-04 at (  40,  32,   5)
       Max div. error:  0.47E-06 at (   5,  33,  10)
       Poisson Pert. : -0.20E-05
       Max VN number:   0.31E+00 at (   5,  33,   9)
 
       Time Step     400   May  8, 2021  16:45:05
       Step Size:    0.562E-01 s, Total Time:      24.32 s
       Pressure Iterations:      1
       Maximum Velocity Error:  0.22E-02 on Mesh   1 at (  36  21  10)
       Maximum Pressure Error:  0.13E-03 on Mesh   1 at (  36  21  10)
       ---------------------------------------------------------------
       Max CFL number:  0.90E+00 at (   5,  10,   9)
       Max divergence:  0.64E-04 at (  33,  20,  10)
       Min divergence: -0.11E-03 at (  40,  10,   6)
       Max div. error:  0.75E-06 at (   5,  33,  10)
       Poisson Pert. :  0.38E-05
       Max VN number:   0.31E+00 at (   5,  10,  10)
 
       Time Step     500   May  8, 2021  16:45:09
       Step Size:    0.562E-01 s, Total Time:      29.93 s
       Pressure Iterations:      1
       Maximum Velocity Error:  0.15E-02 on Mesh   1 at (  34  21   6)
       Maximum Pressure Error:  0.99E-04 on Mesh   1 at (  34  21  12)
       ---------------------------------------------------------------
       Max CFL number:  0.90E+00 at (   5,  33,  10)
       Max divergence:  0.84E-04 at (  32,  20,  11)
       Min divergence: -0.12E-03 at (  40,  11,   6)
       Max div. error:  0.49E-06 at (   5,  34,  10)
       Poisson Pert. :  0.92E-06
       Max VN number:   0.31E+00 at (   5,  33,   9)
 
       Time Step     600   May  8, 2021  16:45:13
       Step Size:    0.562E-01 s, Total Time:      35.55 s
       Pressure Iterations:      1
       Maximum Velocity Error:  0.12E-02 on Mesh   1 at (  32  21   3)
       Maximum Pressure Error:  0.83E-04 on Mesh   1 at (  38  21  12)
       ---------------------------------------------------------------
       Max CFL number:  0.90E+00 at (   5,  10,  10)
       Max divergence:  0.84E-04 at (  33,  22,  10)
       Min divergence: -0.12E-03 at (  40,  11,   5)
       Max div. error:  0.47E-07 at (   5,  34,  10)
       Poisson Pert. : -0.40E-05
       Max VN number:   0.32E+00 at (   5,  10,   9)
 
       Time Step     700   May  8, 2021  16:45:16
       Step Size:    0.562E-01 s, Total Time:      41.17 s
       Pressure Iterations:      1
       Maximum Velocity Error:  0.20E-02 on Mesh   1 at (  40  21   9)
       Maximum Pressure Error:  0.15E-03 on Mesh   1 at (  40  21   9)
       ---------------------------------------------------------------
       Max CFL number:  0.90E+00 at (   5,  33,  10)
       Max divergence:  0.77E-04 at (  33,  20,  10)
       Min divergence: -0.11E-03 at (  40,  11,   4)
       Max div. error:  0.29E-06 at (   5,  33,  10)
       Poisson Pert. : -0.29E-05
       Max VN number:   0.31E+00 at (   5,  32,   9)
 
       Time Step     800   May  8, 2021  16:45:20
       Step Size:    0.562E-01 s, Total Time:      46.78 s
       Pressure Iterations:      1
       Maximum Velocity Error:  0.22E-02 on Mesh   1 at (  16  21   4)
       Maximum Pressure Error:  0.76E-04 on Mesh   1 at (  34   9   9)
       ---------------------------------------------------------------
       Max CFL number:  0.90E+00 at (   5,  32,   9)
       Max divergence:  0.73E-04 at (  40,  33,  11)
       Min divergence: -0.98E-04 at (  40,  10,   6)
       Max div. error:  0.36E-06 at (   5,  33,  10)
       Poisson Pert. :  0.37E-05
       Max VN number:   0.31E+00 at (   5,  10,   9)
 
       Time Step     900   May  8, 2021  16:45:24
       Step Size:    0.562E-01 s, Total Time:      52.40 s
       Pressure Iterations:      1
       Maximum Velocity Error:  0.34E-02 on Mesh   1 at (  38  21  12)
       Maximum Pressure Error:  0.10E-03 on Mesh   1 at (  34  21  11)
       ---------------------------------------------------------------
       Max CFL number:  0.90E+00 at (   5,  11,  10)
       Max divergence:  0.72E-04 at (  32,  22,  10)
       Min divergence: -0.95E-04 at (  40,   9,   7)
       Max div. error:  0.13E-05 at (   5,  12,  10)
       Poisson Pert. : -0.28E-05
       Max VN number:   0.32E+00 at (   5,  32,  10)
 
       Time Step    1000   May  8, 2021  16:45:28
       Step Size:    0.562E-01 s, Total Time:      58.02 s
       Pressure Iterations:      1
       Maximum Velocity Error:  0.27E-02 on Mesh   1 at (  38  21  12)
       Maximum Pressure Error:  0.12E-03 on Mesh   1 at (  36  21  12)
       ---------------------------------------------------------------
       Max CFL number:  0.90E+00 at (   5,  10,   9)
       Max divergence:  0.12E-03 at (  32,  22,  11)
       Min divergence: -0.10E-03 at (  40,  33,   5)
       Max div. error:  0.43E-06 at (   5,  33,  10)
       Poisson Pert. : -0.20E-05
       Max VN number:   0.32E+00 at (   5,  11,   9)
 
       Time Step    1100   May  8, 2021  16:45:32
       Step Size:    0.562E-01 s, Total Time:      63.64 s
       Pressure Iterations:      1
       Maximum Velocity Error:  0.17E-02 on Mesh   1 at (  40  21   6)
       Maximum Pressure Error:  0.86E-04 on Mesh   1 at (  40  21   6)
       ---------------------------------------------------------------
       Max CFL number:  0.90E+00 at (   5,  10,  10)
       Max divergence:  0.85E-04 at (  32,  22,  11)
       Min divergence: -0.94E-04 at (  40,   9,   4)
       Max div. error:  0.36E-06 at (   5,  33,  10)
       Poisson Pert. : -0.35E-05
       Max VN number:   0.32E+00 at (   5,  11,  10)
 
       Time Step    1200   May  8, 2021  16:45:35
       Step Size:    0.562E-01 s, Total Time:      69.25 s
       Pressure Iterations:      1
       Maximum Velocity Error:  0.16E-02 on Mesh   1 at (  23  21   7)
       Maximum Pressure Error:  0.80E-04 on Mesh   1 at (  37  21  12)
       ---------------------------------------------------------------
       Max CFL number:  0.90E+00 at (   5,  11,  10)
       Max divergence:  0.71E-04 at (  40,  33,  11)
       Min divergence: -0.89E-04 at (  40,  10,   4)
       Max div. error:  0.31E-06 at (   5,  33,  10)
       Poisson Pert. :  0.24E-06
       Max VN number:   0.32E+00 at (   5,  11,  10)
 
       Time Step    1300   May  8, 2021  16:45:39
       Step Size:    0.562E-01 s, Total Time:      74.87 s
       Pressure Iterations:      1
       Maximum Velocity Error:  0.15E-02 on Mesh   1 at (  36  21  11)
       Maximum Pressure Error:  0.62E-04 on Mesh   1 at (  36  22  10)
       ---------------------------------------------------------------
       Max CFL number:  0.90E+00 at (   5,  10,  10)
       Max divergence:  0.74E-04 at (  34,  22,   9)
       Min divergence: -0.76E-04 at (  34,  22,  12)
       Max div. error:  0.49E-07 at (   5,  12,  10)
       Poisson Pert. :  0.32E-05
       Max VN number:   0.32E+00 at (   5,  11,  10)
 
       Time Step    1400   May  8, 2021  16:45:43
       Step Size:    0.562E-01 s, Total Time:      80.49 s
       Pressure Iterations:      1
       Maximum Velocity Error:  0.12E-02 on Mesh   1 at (  32  21   7)
       Maximum Pressure Error:  0.54E-04 on Mesh   1 at (  22  21  10)
       ---------------------------------------------------------------
       Max CFL number:  0.90E+00 at (   5,  10,  10)
       Max divergence:  0.88E-04 at (  33,  22,  10)
       Min divergence: -0.78E-04 at (  34,  22,  12)
       Max div. error:  0.61E-06 at (   5,  12,  10)
       Poisson Pert. :  0.30E-05
       Max VN number:   0.32E+00 at (   5,  11,  10)
 
       Time Step    1500   May  8, 2021  16:45:47
       Step Size:    0.562E-01 s, Total Time:      86.11 s
       Pressure Iterations:      1
       Maximum Velocity Error:  0.16E-02 on Mesh   1 at (  34  21   8)
       Maximum Pressure Error:  0.75E-04 on Mesh   1 at (  27  11  12)
       ---------------------------------------------------------------
       Max CFL number:  0.90E+00 at (   5,  10,  10)
       Max divergence:  0.10E-03 at (  33,  22,   9)
       Min divergence: -0.88E-04 at (  36,  22,  12)
       Max div. error:  0.16E-06 at (   5,  33,  10)
       Poisson Pert. : -0.13E-05
       Max VN number:   0.32E+00 at (   5,  32,  10)
 
       Time Step    1600   May  8, 2021  16:45:50
       Step Size:    0.562E-01 s, Total Time:      91.72 s
       Pressure Iterations:      1
       Maximum Velocity Error:  0.21E-02 on Mesh   1 at (  33  21   9)
       Maximum Pressure Error:  0.70E-04 on Mesh   1 at (  16  11  12)
       ---------------------------------------------------------------
       Max CFL number:  0.90E+00 at (   5,  11,  10)
       Max divergence:  0.79E-04 at (  33,  22,   9)
       Min divergence: -0.72E-04 at (  36,  22,  12)
       Max div. error:  0.34E-06 at (   5,  33,  10)
       Poisson Pert. : -0.48E-05
       Max VN number:   0.32E+00 at (   5,  11,  10)
 
       Time Step    1700   May  8, 2021  16:45:54
       Step Size:    0.562E-01 s, Total Time:      97.34 s
       Pressure Iterations:      1
       Maximum Velocity Error:  0.22E-02 on Mesh   1 at (  40  21   7)
       Maximum Pressure Error:  0.99E-04 on Mesh   1 at (  34   9  12)
       ---------------------------------------------------------------
       Max CFL number:  0.90E+00 at (   5,  10,   9)
       Max divergence:  0.73E-04 at (  32,  22,  10)
       Min divergence: -0.82E-04 at (  34,  22,  12)
       Max div. error:  0.76E-06 at (   5,  12,  10)
       Poisson Pert. : -0.14E-04
       Max VN number:   0.32E+00 at (   5,  11,   9)
 
       Time Step    1748   May  8, 2021  16:45:56
       Step Size:    0.185E-01 s, Total Time:     100.00 s
       Pressure Iterations:      1
       Maximum Velocity Error:  0.50E-03 on Mesh   1 at (  40  21   8)
       Maximum Pressure Error:  0.37E-04 on Mesh   1 at (  39  22  11)
       ---------------------------------------------------------------
       Max CFL number:  0.30E+00 at (   5,  10,  10)
       Max divergence:  0.80E-04 at (  32,  22,  10)
       Min divergence: -0.92E-04 at (  34,  22,  12)
       Max div. error:  0.25E-05 at (   5,  33,  10)
       Poisson Pert. :  0.32E-05
       Max VN number:   0.10E+00 at (   5,  32,  10)
 


 Time Stepping Wall Clock Time (s):       66.841
 Total Elapsed Wall Clock Time (s):       68.130

STOP: FDS completed successfully (CHID: smoke_control)
