
 Fire Dynamics Simulator

 Current Date     : May  9, 2021  13:55:36
 Revision         : FDS6.7.4-0-gbfaa110-release
 Revision Date    : Fri Mar 6 10:17:46 2020 -0500
 Compiler         : Intel ifort 19.0.4.243
 Compilation Date : Mar 09, 2020 16:12:17

 MPI Enabled;    Number of MPI Processes:       1
 OpenMP Enabled; Number of OpenMP Threads:      4

 MPI version: 3.1
 MPI library version: Intel(R) MPI Library 2019 Update 4 for Linux* OS


 Job TITLE        : 
 Job ID string    : smoke_control


 Grid Dimensions, Mesh     1

   Cells in the X Direction            40
   Cells in the Y Direction            41
   Cells in the Z Direction            12
   Number of Grid Cells             19680


 Physical Dimensions, Mesh     1

   Length (m)                      10.000
   Width  (m)                      10.250
   Height (m)                       3.000
   Initial Time Step (s)            0.228

Total Number of Grid Cells         19680


 Miscellaneous Parameters

   Simulation Start Time (s)          0.0
   Simulation End Time (s)          100.0
   LES Calculation
   Eddy Viscosity:           Deardorff Model (C_DEARDORFF = 0.10)
   Near-wall Eddy Viscosity: Smagorinsky with Van Driest damping (C_SMAGORINSKY = 0.20)
   Turbulent Prandtl Number:         0.50
   Turbulent Schmidt Number:         0.50
   Ambient Temperature (C):         20.00


 Mass Fraction Transformation Matrix to Convert Species Mixtures (Columns) to Primitive Species (Rows)

                         AIR       POLYURET  PRODUCTS
   POLYURETHANE          0.000000  1.000000  0.000000
   NITROGEN              0.762470  0.000000  0.677945
   OXYGEN                0.230997  0.000000  0.000000
   CARBON DIOXIDE        0.000591  0.000000  0.241242
   CARBON MONOXIDE       0.000000  0.000000  0.006451
   WATER VAPOR           0.005941  0.000000  0.067910
   SOOT                  0.000000  0.000000  0.006451
   HYDROGEN              0.000000  0.000000  0.000000


 Primitive Species Information

   POLYURETHANE
   Gas Species
   Molecular Weight (g/mol)           130.42922
   Ambient Density (kg/m^3)            5.422
   Enthalpy of Formation (J/kg)       -2.98E+06

   NITROGEN
   Gas Species
   Molecular Weight (g/mol)            28.01340
   Ambient Density (kg/m^3)            1.165
   Enthalpy of Formation (J/kg)        0.00E+00

   OXYGEN
   Gas Species
   Molecular Weight (g/mol)            31.99880
   Ambient Density (kg/m^3)            1.330
   Enthalpy of Formation (J/kg)        0.00E+00

   CARBON DIOXIDE
   Gas Species
   Molecular Weight (g/mol)            44.00950
   Ambient Density (kg/m^3)            1.830
   Enthalpy of Formation (J/kg)       -8.94E+06

   CARBON MONOXIDE
   Gas Species
   Molecular Weight (g/mol)            28.01010
   Ambient Density (kg/m^3)            1.164
   Enthalpy of Formation (J/kg)       -3.95E+06

   WATER VAPOR
   Gas Species
   Molecular Weight (g/mol)            18.01528
   Ambient Density (kg/m^3)            0.749
   Enthalpy of Formation (J/kg)       -1.34E+07

   SOOT
   Gas Species
   Molecular Weight (g/mol)            10.91042
   Ambient Density (kg/m^3)            0.454
   Enthalpy of Formation (J/kg)        0.00E+00

   HYDROGEN
   Gas Species
   Molecular Weight (g/mol)             2.01588
   Ambient Density (kg/m^3)            0.084
   Enthalpy of Formation (J/kg)        0.00E+00


 Tracked (Lumped) Species Information

   AIR
   Molecular Weight (g/mol)            28.75199
   Ambient Density (kg/m^3)            1.195
   Initial Mass Fraction               1.000
   Enthalpy of Formation (J/kg)     -8.50E+04

   Sub Species                    Mass Fraction     Mole Fraction
   NITROGEN                       7.624701E-01      7.825730E-01
   OXYGEN                         2.309974E-01      2.075589E-01
   CARBON DIOXIDE                 5.914651E-04      3.864120E-04
   WATER VAPOR                    5.940984E-03      9.481679E-03
 
     Viscosity (kg/m/s) Ambient,  293 K:  1.80E-05
                                  500 K:  2.61E-05
                                 1000 K:  4.13E-05
                                 1500 K:  5.37E-05
   Therm. Cond. (W/m/K) Ambient,  293 K:  2.56E-02
                                  500 K:  3.81E-02
                                 1000 K:  6.69E-02
                                 1500 K:  9.25E-02
        Enthalpy (J/kg) Ambient,  293 K: -9.01E+04
                                  500 K:  1.22E+05
                                 1000 K:  6.72E+05
                                 1500 K:  1.27E+06
    Spec. Heat (J/kg/K) Ambient,  293 K:  1.02E+03
                                  500 K:  1.04E+03
                                 1000 K:  1.16E+03
                                 1500 K:  1.23E+03
   Diff. Coeff. (m^2/s) Ambient,  293 K:  1.99E-05
                                  500 K:  4.96E-05
                                 1000 K:  1.58E-04
                                 1500 K:  3.09E-04

   POLYURETHANE
   Molecular Weight (g/mol)           130.42922
   Ambient Density (kg/m^3)            5.422
   Initial Mass Fraction               0.000
   Enthalpy of Formation (J/kg)     -2.98E+06

   Sub Species                    Mass Fraction     Mole Fraction
   POLYURETHANE                   1.000000E+00      1.000000E+00
 
     Viscosity (kg/m/s) Ambient,  293 K:  3.75E-05
                                  500 K:  5.42E-05
                                 1000 K:  8.52E-05
                                 1500 K:  1.11E-04
   Therm. Cond. (W/m/K) Ambient,  293 K:  1.18E-02
                                  500 K:  1.70E-02
                                 1000 K:  2.68E-02
                                 1500 K:  3.48E-02
        Enthalpy (J/kg) Ambient,  293 K: -2.98E+06
                                  500 K: -2.93E+06
                                 1000 K: -2.82E+06
                                 1500 K: -2.71E+06
    Spec. Heat (J/kg/K) Ambient,  293 K:  2.23E+02
                                  500 K:  2.23E+02
                                 1000 K:  2.23E+02
                                 1500 K:  2.23E+02
   Diff. Coeff. (m^2/s) Ambient,  293 K:  1.55E-05
                                  500 K:  3.85E-05
                                 1000 K:  1.22E-04
                                 1500 K:  2.39E-04

   PRODUCTS
   Molecular Weight (g/mol)            29.17702
   Ambient Density (kg/m^3)            1.213
   Initial Mass Fraction               0.000
   Enthalpy of Formation (J/kg)     -3.09E+06

   Sub Species                    Mass Fraction     Mole Fraction
   NITROGEN                       6.779453E-01      7.061059E-01
   CARBON DIOXIDE                 2.412420E-01      1.599365E-01
   CARBON MONOXIDE                6.451477E-03      6.720251E-03
   WATER VAPOR                    6.790972E-02      1.099846E-01
   SOOT                           6.451477E-03      1.725276E-02
 
     Viscosity (kg/m/s) Ambient,  293 K:  1.62E-05
                                  500 K:  2.40E-05
                                 1000 K:  3.89E-05
                                 1500 K:  5.12E-05
   Therm. Cond. (W/m/K) Ambient,  293 K:  2.31E-02
                                  500 K:  3.60E-02
                                 1000 K:  6.66E-02
                                 1500 K:  9.46E-02
        Enthalpy (J/kg) Ambient,  293 K: -3.10E+06
                                  500 K: -2.88E+06
                                 1000 K: -2.28E+06
                                 1500 K: -1.62E+06
    Spec. Heat (J/kg/K) Ambient,  293 K:  1.04E+03
                                  500 K:  1.11E+03
                                 1000 K:  1.26E+03
                                 1500 K:  1.36E+03
   Diff. Coeff. (m^2/s) Ambient,  293 K:  1.93E-05
                                  500 K:  4.89E-05
                                 1000 K:  1.57E-04
                                 1500 K:  3.09E-04


 Gas Phase Reaction Information

   C_6.3 H_7.1 N O_2.1, NFPA Handbook, Babrauskas

   Reaction ID:  POLYURETHANE

   Fuel                                           Heat of Combustion (kJ/kg)
   POLYURETHANE                                                   20426.4426

   Stoichiometry

   Primitive Species Stoich. Coeff.
   Species ID                                                          Molar
   POLYURETHANE                                                    -1.000000
   NITROGEN                                                         0.500000
   OXYGEN                                                          -6.355689
   CARBON DIOXIDE                                                   5.529220
   CARBON MONOXIDE                                                  0.232825
   WATER VAPOR                                                      3.520114
   SOOT                                                             0.597728

   Tracked (Lumped) Species Stoich. Coeff.
   Species ID                                             Molar         Mass
   AIR                                               -30.621136    -6.750163
   POLYURETHANE                                       -1.000000    -1.000000
   PRODUCTS                                           34.645334     7.750163

   Reaction Kinetics

   Arrhenius Parameters
   Pre-exponential:    Infinite
   Activation Energy:  N/A

   ODE Solver:  EXPLICIT EULER
   Extinction Model:  EXTINCTION 2
   Auto-Ignition Temperature (K):       0.0
   Critical Flame Temperature (K):   1700.2


 Material Information

   1 CONCRETE                                                    
     Emissivity                      0.800
     Density (kg/m3)                 200.0
     Specific Heat (kJ/kg/K)      8.80E-01
     Conductivity (W/m/K)           1.0000


 Surface Conditions

   0 INERT

   1 WALL (DEFAULT)
     Material List
          1  CONCRETE
     Layer  1
        Thickness   (m):  0.25000
        Density (kg/m3):   200.00
        CONCRETE, Mass fraction:    1.00
     Total surface density    50.000 kg/m2
     Reaction products considered from the first  0.50 layers.
     Solid Phase Node, Layer, Coordinates(m):
                    0      1       0.0000000
                    1      1       0.0019841
                    2      1       0.0059524
                    3      1       0.0138889
                    4      1       0.0297619
                    5      1       0.0615079
                    6      1       0.1250000
                    7      1       0.1884921
                    8      1       0.2202381
                    9      1       0.2361111
                   10      1       0.2440476
                   11      1       0.2480159
                   12      1       0.2500000
     Exposed Backing

   2 DUCT_ENCLOSURE

   3 FIRE_OUTLET
     HRR Per Unit Area (kW/m2)        500.0
     POLYURETHANE Mass Flux (kg/s/m2)   2.45E-02

   4 OPEN
     Passive Vent to Atmosphere

   5 MIRROR
     Symmetry Plane

   6 INTERPOLATED

   7 PERIODIC

   8 HVAC

   9 MASSLESS TRACER

  10 DROPLET

  11 EVACUATION_OUTFLOW
     Normal Velocity (m/s)         0.000

  12 MASSLESS TARGET

  13 PERIODIC WIND

  14 SLICE


 Slice File Information, Mesh     1

   Sampling Interval (s)             0.100

   1 Nodes:   0  40   0  41   9   9, Quantity: VELOCITY
   2 Nodes:   0  40   0  41   9   9, Quantity: U-VELOCITY
   3 Nodes:   0  40   0  41   9   9, Quantity: V-VELOCITY
   4 Nodes:   0  40   0  41   9   9, Quantity: W-VELOCITY
   5 Nodes:  34  34   0  41   0  12, Quantity: VELOCITY
   6 Nodes:  34  34   0  41   0  12, Quantity: U-VELOCITY
   7 Nodes:  34  34   0  41   0  12, Quantity: V-VELOCITY
   8 Nodes:  34  34   0  41   0  12, Quantity: W-VELOCITY
   9 Nodes:   0  40  10  10   0  12, Quantity: VELOCITY
  10 Nodes:   0  40  10  10   0  12, Quantity: U-VELOCITY
  11 Nodes:   0  40  10  10   0  12, Quantity: V-VELOCITY
  12 Nodes:   0  40  10  10   0  12, Quantity: W-VELOCITY
  13 Nodes:   0  40  32  32   0  12, Quantity: VELOCITY
  14 Nodes:   0  40  32  32   0  12, Quantity: U-VELOCITY
  15 Nodes:   0  40  32  32   0  12, Quantity: V-VELOCITY
  16 Nodes:   0  40  32  32   0  12, Quantity: W-VELOCITY
  17 Nodes:   0  40   0  41   9   9, Quantity: TEMPERATURE
  18 Nodes:  34  34   0  41   0  12, Quantity: TEMPERATURE
  19 Nodes:   0  40  10  10   0  12, Quantity: TEMPERATURE
  20 Nodes:   0  40  32  32   0  12, Quantity: TEMPERATURE


 Radiation Model Information

   Number of control angles  104
   Time step increment         3
   Angle increment             5
   Theta band N_phi   Solid angle
     1:        4     0.120
     2:       12     0.114
     3:       16     0.127
     4:       20     0.120
     5:       20     0.120
     6:       16     0.127
     7:       12     0.114
     8:        4     0.120
   Using gray gas absorption.
   Mean beam length  0.100 m
 
 

 Run Time Diagnostics

       Time Step       1   May  9, 2021  13:55:36
       Step Size:    0.228E+00 s, Total Time:       0.23 s
       Pressure Iterations:      1
       Maximum Velocity Error:  0.60E-02 on Mesh   1 at (  41  20   3)
       Maximum Pressure Error:  0.10E+02 on Mesh   1 at (  26  12   1)
       ---------------------------------------------------------------
       Max CFL number:  0.18E-01 at (  38,  39,   6)
       Max divergence:  0.45E+00 at (  28,  13,   1)
       Min divergence: -0.64E-05 at (  26,  13,   2)
       Max VN number:   0.12E-01 at (  33,  16,   4)
       Total Heat Release Rate:             39.118 kW
 
       Time Step       2   May  9, 2021  13:55:36
       Step Size:    0.228E+00 s, Total Time:       0.46 s
       Pressure Iterations:      2
       Maximum Velocity Error:  0.39E-01 on Mesh   1 at (   4  33   9)
       Maximum Pressure Error:  0.18E+02 on Mesh   1 at (  26  11   1)
       ---------------------------------------------------------------
       Max CFL number:  0.77E+00 at (   5,  32,  10)
       Max divergence:  0.12E+01 at (  26,  11,   1)
       Min divergence: -0.18E-04 at (   5,  11,   9)
       Max VN number:   0.16E-01 at (  26,  13,   2)
       Total Heat Release Rate:            115.501 kW
       Radiation Loss to Boundaries:        -5.445 kW
 
       Time Step       3   May  9, 2021  13:55:37
       Step Size:    0.136E+00 s, Total Time:       0.59 s
       Pressure Iterations:      1
       Maximum Velocity Error:  0.90E-01 on Mesh   1 at (   4  10  10)
       Maximum Pressure Error:  0.22E+02 on Mesh   1 at (  25  10   1)
       ---------------------------------------------------------------
       Max CFL number:  0.88E+00 at (   5,  11,  10)
       Max divergence:  0.17E+01 at (  26,  12,   1)
       Min divergence: -0.33E-04 at (   5,  11,   9)
       Max VN number:   0.27E+00 at (   5,  10,   9)
       Total Heat Release Rate:            194.406 kW
       Radiation Loss to Boundaries:       -31.460 kW
 
       Time Step       4   May  9, 2021  13:55:37
       Step Size:    0.106E+00 s, Total Time:       0.70 s
       Pressure Iterations:      1
       Maximum Velocity Error:  0.32E-01 on Mesh   1 at (  41   1   1)
       Maximum Pressure Error:  0.22E+02 on Mesh   1 at (  26  11   1)
       ---------------------------------------------------------------
       Max CFL number:  0.89E+00 at (   5,  32,   9)
       Max divergence:  0.13E+01 at (  26,  12,   1)
       Min divergence: -0.37E-04 at (   5,  33,   8)
       Max VN number:   0.38E+00 at (   5,  10,   9)
       Total Heat Release Rate:            239.845 kW
       Radiation Loss to Boundaries:       -97.635 kW
 
       Time Step       5   May  9, 2021  13:55:37
       Step Size:    0.932E-01 s, Total Time:       0.79 s
       Pressure Iterations:      1
       Maximum Velocity Error:  0.23E-01 on Mesh   1 at (  41   1  12)
       Maximum Pressure Error:  0.51E+02 on Mesh   1 at (  25  11   1)
       ---------------------------------------------------------------
       Max CFL number:  0.90E+00 at (   5,  32,   9)
       Max divergence:  0.80E+00 at (  25,  13,   1)
       Min divergence: -0.66E-02 at (  26,  11,   2)
       Max VN number:   0.41E+00 at (   5,  10,   9)
       Total Heat Release Rate:            271.886 kW
       Radiation Loss to Boundaries:      -188.095 kW
 
       Time Step       6   May  9, 2021  13:55:37
       Step Size:    0.932E-01 s, Total Time:       0.88 s
       Pressure Iterations:      1
       Maximum Velocity Error:  0.22E-01 on Mesh   1 at (  41   1  12)
       Maximum Pressure Error:  0.28E+02 on Mesh   1 at (  25  10   1)
       ---------------------------------------------------------------
       Max CFL number:  0.98E+00 at (   5,  32,   9)
       Max divergence:  0.11E+01 at (  25,  10,   1)
       Min divergence: -0.23E-01 at (  28,  13,   2)
       Max VN number:   0.43E+00 at (   5,  10,   9)
       Total Heat Release Rate:            295.735 kW
       Radiation Loss to Boundaries:      -198.034 kW
 
       Time Step       7   May  9, 2021  13:55:37
       Step Size:    0.801E-01 s, Total Time:       0.96 s
       Pressure Iterations:      1
       Maximum Velocity Error:  0.29E-01 on Mesh   1 at (  41  20  12)
       Maximum Pressure Error:  0.40E+02 on Mesh   1 at (  28  13   1)
       ---------------------------------------------------------------
       Max CFL number:  0.90E+00 at (   5,  32,   9)
       Max divergence:  0.16E+01 at (  25,  10,   1)
       Min divergence: -0.49E-01 at (  27,  12,   2)
       Max VN number:   0.36E+00 at (   5,  10,   9)
       Total Heat Release Rate:            324.078 kW
       Radiation Loss to Boundaries:      -176.469 kW
 
       Time Step       8   May  9, 2021  13:55:37
       Step Size:    0.801E-01 s, Total Time:       1.04 s
       Pressure Iterations:      1
       Maximum Velocity Error:  0.37E-01 on Mesh   1 at (  41  20  12)
       Maximum Pressure Error:  0.25E+02 on Mesh   1 at (  27  12   1)
       ---------------------------------------------------------------
       Max CFL number:  0.95E+00 at (   5,  33,   9)
       Max divergence:  0.17E+01 at (  25,  10,   1)
       Min divergence: -0.29E+00 at (  28,  13,   2)
       Max VN number:   0.36E+00 at (   5,  10,  10)
       Total Heat Release Rate:            341.177 kW
       Radiation Loss to Boundaries:      -204.333 kW
 
       Time Step       9   May  9, 2021  13:55:37
       Step Size:    0.801E-01 s, Total Time:       1.12 s
       Pressure Iterations:      1
       Maximum Velocity Error:  0.46E-01 on Mesh   1 at (  41  20  12)
       Maximum Pressure Error:  0.27E+02 on Mesh   1 at (  28  11   1)
       ---------------------------------------------------------------
       Max CFL number:  0.99E+00 at (   5,  33,  10)
       Max divergence:  0.19E+01 at (  28,  10,   1)
       Min divergence: -0.51E+00 at (  28,  13,   2)
       Max VN number:   0.35E+00 at (   5,  32,  10)
       Total Heat Release Rate:            357.891 kW
       Radiation Loss to Boundaries:      -194.194 kW
 
       Time Step      10   May  9, 2021  13:55:37
       Step Size:    0.702E-01 s, Total Time:       1.19 s
       Pressure Iterations:      1
       Maximum Velocity Error:  0.47E-01 on Mesh   1 at (  41  20  12)
       Maximum Pressure Error:  0.38E+02 on Mesh   1 at (  27  12   1)
       ---------------------------------------------------------------
       Max CFL number:  0.91E+00 at (   5,  32,   9)
       Max divergence:  0.25E+01 at (  28,  13,   1)
       Min divergence: -0.79E+00 at (  28,  12,   2)
       Max VN number:   0.30E+00 at (   5,  32,  10)
       Total Heat Release Rate:            382.890 kW
       Radiation Loss to Boundaries:      -173.636 kW
 
       Time Step      20   May  9, 2021  13:55:38
       Step Size:    0.460E-01 s, Total Time:       1.75 s
       Pressure Iterations:      3
       Maximum Velocity Error:  0.30E-01 on Mesh   1 at (  41  20  12)
       Maximum Pressure Error:  0.10E+03 on Mesh   1 at (  27  12   1)
       ---------------------------------------------------------------
       Max CFL number:  0.90E+00 at (  27,  12,   1)
       Max divergence:  0.85E+01 at (  26,  11,   1)
       Min divergence: -0.57E+01 at (  27,  12,   1)
       Max VN number:   0.62E+00 at (  27,  12,   1)
       Total Heat Release Rate:            559.805 kW
       Radiation Loss to Boundaries:      -296.660 kW
 
       Time Step      30   May  9, 2021  13:55:39
       Step Size:    0.312E-01 s, Total Time:       2.12 s
       Pressure Iterations:      1
       Maximum Velocity Error:  0.37E-01 on Mesh   1 at (  41   1  12)
       Maximum Pressure Error:  0.12E+03 on Mesh   1 at (  28  13   1)
       ---------------------------------------------------------------
       Max CFL number:  0.93E+00 at (  27,  12,   6)
       Max divergence:  0.33E+01 at (  26,  11,   1)
       Min divergence: -0.19E+01 at (  27,  12,   2)
       Max VN number:   0.19E+00 at (  27,  12,   5)
       Total Heat Release Rate:            455.146 kW
       Radiation Loss to Boundaries:      -114.653 kW
 
       Time Step      40   May  9, 2021  13:55:39
       Step Size:    0.312E-01 s, Total Time:       2.43 s
       Pressure Iterations:      1
       Maximum Velocity Error:  0.40E-01 on Mesh   1 at (  41  20   1)
       Maximum Pressure Error:  0.19E+03 on Mesh   1 at (  28  13   1)
       ---------------------------------------------------------------
       Max CFL number:  0.86E+00 at (  27,  12,  10)
       Max divergence:  0.35E+01 at (  28,  11,   1)
       Min divergence: -0.11E+01 at (  27,  12,   5)
       Max VN number:   0.23E+00 at (  26,  12,   9)
       Total Heat Release Rate:            462.069 kW
       Radiation Loss to Boundaries:      -112.974 kW
 
       Time Step      50   May  9, 2021  13:55:40
       Step Size:    0.312E-01 s, Total Time:       2.74 s
       Pressure Iterations:      1
       Maximum Velocity Error:  0.36E-01 on Mesh   1 at (  41   1  12)
       Maximum Pressure Error:  0.18E+03 on Mesh   1 at (  25  10   1)
       ---------------------------------------------------------------
       Max CFL number:  0.89E+00 at (  27,  12,  11)
       Max divergence:  0.36E+01 at (  26,  10,   1)
       Min divergence: -0.89E+00 at (  27,  11,   2)
       Max VN number:   0.50E+00 at (  27,  13,  12)
       Total Heat Release Rate:            531.134 kW
       Radiation Loss to Boundaries:      -152.867 kW
 
       Time Step      60   May  9, 2021  13:55:40
       Step Size:    0.343E-01 s, Total Time:       3.06 s
       Pressure Iterations:      1
       Maximum Velocity Error:  0.31E-01 on Mesh   1 at (  41  20  12)
       Maximum Pressure Error:  0.22E+03 on Mesh   1 at (  25  13   1)
       ---------------------------------------------------------------
       Max CFL number:  0.92E+00 at (  27,  12,   7)
       Max divergence:  0.34E+01 at (  26,  13,   1)
       Min divergence: -0.12E+01 at (  27,  12,   6)
       Max VN number:   0.52E+00 at (  27,  12,  12)
       Total Heat Release Rate:            508.677 kW
       Radiation Loss to Boundaries:      -127.866 kW
 
       Time Step      70   May  9, 2021  13:55:41
       Step Size:    0.343E-01 s, Total Time:       3.40 s
       Pressure Iterations:      1
       Maximum Velocity Error:  0.36E-01 on Mesh   1 at (  29  21  12)
       Maximum Pressure Error:  0.23E+03 on Mesh   1 at (  25  13   1)
       ---------------------------------------------------------------
       Max CFL number:  0.88E+00 at (  27,  12,   8)
       Max divergence:  0.33E+01 at (  28,  12,   1)
       Min divergence: -0.10E+01 at (  27,  11,   2)
       Max VN number:   0.49E+00 at (  27,  12,  12)
       Total Heat Release Rate:            492.816 kW
       Radiation Loss to Boundaries:      -130.261 kW
 
       Time Step      80   May  9, 2021  13:55:42
       Step Size:    0.343E-01 s, Total Time:       3.75 s
       Pressure Iterations:      1
       Maximum Velocity Error:  0.34E-01 on Mesh   1 at (  35  21  12)
       Maximum Pressure Error:  0.25E+03 on Mesh   1 at (  25  13   1)
       ---------------------------------------------------------------
       Max CFL number:  0.84E+00 at (  27,  12,  10)
       Max divergence:  0.36E+01 at (  27,  10,   1)
       Min divergence: -0.95E+00 at (  27,  11,   2)
       Max VN number:   0.54E+00 at (  27,  12,  12)
       Total Heat Release Rate:            502.408 kW
       Radiation Loss to Boundaries:      -135.182 kW
 
       Time Step      90   May  9, 2021  13:55:42
       Step Size:    0.343E-01 s, Total Time:       4.09 s
       Pressure Iterations:      1
       Maximum Velocity Error:  0.38E-01 on Mesh   1 at (  41  15  12)
       Maximum Pressure Error:  0.25E+03 on Mesh   1 at (  25  13   1)
       ---------------------------------------------------------------
       Max CFL number:  0.81E+00 at (  27,  12,   7)
       Max divergence:  0.34E+01 at (  28,  11,   1)
       Min divergence: -0.10E+01 at (  27,  12,   4)
       Max VN number:   0.50E+00 at (  26,  12,  12)
       Total Heat Release Rate:            508.910 kW
       Radiation Loss to Boundaries:      -136.065 kW
 
       Time Step     100   May  9, 2021  13:55:43
       Step Size:    0.343E-01 s, Total Time:       4.43 s
       Pressure Iterations:      1
       Maximum Velocity Error:  0.60E-01 on Mesh   1 at (  41  18  12)
       Maximum Pressure Error:  0.24E+03 on Mesh   1 at (  25  13   1)
       ---------------------------------------------------------------
       Max CFL number:  0.90E+00 at (  27,  12,   8)
       Max divergence:  0.39E+01 at (  28,  11,   1)
       Min divergence: -0.11E+01 at (  27,  12,   8)
       Max VN number:   0.56E+00 at (  27,  12,  12)
       Total Heat Release Rate:            493.291 kW
       Radiation Loss to Boundaries:      -126.201 kW
 
       Time Step     200   May  9, 2021  13:55:50
       Step Size:    0.377E-01 s, Total Time:       7.92 s
       Pressure Iterations:      1
       Maximum Velocity Error:  0.39E-01 on Mesh   1 at (  41  14  12)
       Maximum Pressure Error:  0.18E+03 on Mesh   1 at (  28  10   1)
       ---------------------------------------------------------------
       Max CFL number:  0.94E+00 at (  26,  13,   9)
       Max divergence:  0.32E+01 at (  26,  12,   1)
       Min divergence: -0.15E+01 at (  26,  11,   2)
       Max VN number:   0.59E+00 at (  26,  13,  12)
       Total Heat Release Rate:            486.774 kW
       Radiation Loss to Boundaries:      -121.650 kW
 
       Time Step     300   May  9, 2021  13:55:57
       Step Size:    0.298E-01 s, Total Time:      11.33 s
       Pressure Iterations:      1
       Maximum Velocity Error:  0.12E-01 on Mesh   1 at (  41  14  12)
       Maximum Pressure Error:  0.10E+03 on Mesh   1 at (  28  11   1)
       ---------------------------------------------------------------
       Max CFL number:  0.93E+00 at (  28,  12,   9)
       Max divergence:  0.49E+01 at (  26,  10,   1)
       Min divergence: -0.17E+01 at (  27,  11,   3)
       Max VN number:   0.41E+00 at (  28,  11,  12)
       Total Heat Release Rate:            467.958 kW
       Radiation Loss to Boundaries:       -91.797 kW
 
       Time Step     400   May  9, 2021  13:56:04
       Step Size:    0.367E-01 s, Total Time:      14.81 s
       Pressure Iterations:      1
       Maximum Velocity Error:  0.17E-01 on Mesh   1 at (  41  16  12)
       Maximum Pressure Error:  0.10E+03 on Mesh   1 at (  27  11   1)
       ---------------------------------------------------------------
       Max CFL number:  0.84E+00 at (  28,  11,   9)
       Max divergence:  0.44E+01 at (  26,  12,   1)
       Min divergence: -0.16E+01 at (  27,  12,   2)
       Max VN number:   0.49E+00 at (  29,  12,  12)
       Total Heat Release Rate:            486.145 kW
       Radiation Loss to Boundaries:      -132.042 kW
 
       Time Step     500   May  9, 2021  13:56:11
       Step Size:    0.429E-01 s, Total Time:      18.59 s
       Pressure Iterations:      1
       Maximum Velocity Error:  0.53E-01 on Mesh   1 at (  41  12  12)
       Maximum Pressure Error:  0.11E+03 on Mesh   1 at (  28  12   1)
       ---------------------------------------------------------------
       Max CFL number:  0.85E+00 at (  30,  12,  10)
       Max divergence:  0.55E+01 at (  28,  12,   1)
       Min divergence: -0.24E+01 at (  28,  11,   2)
       Max VN number:   0.63E+00 at (  30,  12,  12)
       Total Heat Release Rate:            494.582 kW
       Radiation Loss to Boundaries:      -119.795 kW
 
       Time Step     600   May  9, 2021  13:56:17
       Step Size:    0.311E-01 s, Total Time:      22.31 s
       Pressure Iterations:      1
       Maximum Velocity Error:  0.14E-01 on Mesh   1 at (  41  11  12)
       Maximum Pressure Error:  0.16E+03 on Mesh   1 at (  27  12   1)
       ---------------------------------------------------------------
       Max CFL number:  0.87E+00 at (  27,  12,   7)
       Max divergence:  0.42E+01 at (  27,  10,   1)
       Min divergence: -0.94E+00 at (  27,  12,   2)
       Max VN number:   0.34E+00 at (  28,  13,  12)
       Total Heat Release Rate:            522.025 kW
       Radiation Loss to Boundaries:      -161.451 kW
 
       Time Step     700   May  9, 2021  13:56:24
       Step Size:    0.354E-01 s, Total Time:      25.98 s
       Pressure Iterations:      1
       Maximum Velocity Error:  0.32E-01 on Mesh   1 at (  41  11  12)
       Maximum Pressure Error:  0.67E+02 on Mesh   1 at (  25  13   1)
       ---------------------------------------------------------------
       Max CFL number:  0.78E+00 at (  27,  11,   6)
       Max divergence:  0.41E+01 at (  26,  11,   1)
       Min divergence: -0.17E+01 at (  27,  12,   2)
       Max VN number:   0.50E+00 at (  27,  10,  12)
       Total Heat Release Rate:            467.452 kW
       Radiation Loss to Boundaries:      -132.927 kW
 
       Time Step     800   May  9, 2021  13:56:31
       Step Size:    0.341E-01 s, Total Time:      29.69 s
       Pressure Iterations:      1
       Maximum Velocity Error:  0.30E-01 on Mesh   1 at (  41  14  12)
       Maximum Pressure Error:  0.11E+03 on Mesh   1 at (  27  11   1)
       ---------------------------------------------------------------
       Max CFL number:  0.90E+00 at (  27,  12,   8)
       Max divergence:  0.39E+01 at (  27,  10,   1)
       Min divergence: -0.23E+01 at (  27,  11,   2)
       Max VN number:   0.53E+00 at (  27,  12,  12)
       Total Heat Release Rate:            472.434 kW
       Radiation Loss to Boundaries:      -112.582 kW
 
       Time Step     900   May  9, 2021  13:56:37
       Step Size:    0.386E-01 s, Total Time:      33.20 s
       Pressure Iterations:      1
       Maximum Velocity Error:  0.12E-01 on Mesh   1 at (  41  11  12)
       Maximum Pressure Error:  0.30E+02 on Mesh   1 at (  27  12   1)
       ---------------------------------------------------------------
       Max CFL number:  0.85E+00 at (  27,  11,   8)
       Max divergence:  0.49E+01 at (  28,  11,   1)
       Min divergence: -0.11E+01 at (  27,  12,   2)
       Max VN number:   0.52E+00 at (  25,  10,  12)
       Total Heat Release Rate:            523.623 kW
       Radiation Loss to Boundaries:      -170.984 kW
 
       Time Step    1000   May  9, 2021  13:56:44
       Step Size:    0.352E-01 s, Total Time:      37.18 s
       Pressure Iterations:      1
       Maximum Velocity Error:  0.14E-01 on Mesh   1 at (  41  13  12)
       Maximum Pressure Error:  0.41E+02 on Mesh   1 at (  26  13   9)
       ---------------------------------------------------------------
       Max CFL number:  0.85E+00 at (  26,  13,   7)
       Max divergence:  0.37E+01 at (  27,  13,   1)
       Min divergence: -0.13E+01 at (  26,  11,   2)
       Max VN number:   0.47E+00 at (  25,  10,  12)
       Total Heat Release Rate:            515.887 kW
       Radiation Loss to Boundaries:      -166.938 kW
 
       Time Step    1100   May  9, 2021  13:56:51
       Step Size:    0.408E-01 s, Total Time:      41.01 s
       Pressure Iterations:      1
       Maximum Velocity Error:  0.25E-01 on Mesh   1 at (  41  12  12)
       Maximum Pressure Error:  0.28E+02 on Mesh   1 at (  26  12   1)
       ---------------------------------------------------------------
       Max CFL number:  0.83E+00 at (  25,  11,   5)
       Max divergence:  0.42E+01 at (  26,  13,   1)
       Min divergence: -0.12E+01 at (  26,  12,   4)
       Max VN number:   0.46E+00 at (  28,  12,  12)
       Total Heat Release Rate:            523.958 kW
       Radiation Loss to Boundaries:      -183.235 kW
 
       Time Step    1200   May  9, 2021  13:56:58
       Step Size:    0.363E-01 s, Total Time:      44.71 s
       Pressure Iterations:      1
       Maximum Velocity Error:  0.16E-01 on Mesh   1 at (  26  21  12)
       Maximum Pressure Error:  0.15E+02 on Mesh   1 at (  26  10  12)
       ---------------------------------------------------------------
       Max CFL number:  0.86E+00 at (  27,  12,   9)
       Max divergence:  0.34E+01 at (  26,  13,   1)
       Min divergence: -0.91E+00 at (  26,  12,   5)
       Max VN number:   0.55E+00 at (  26,  12,  12)
       Total Heat Release Rate:            507.775 kW
       Radiation Loss to Boundaries:      -173.661 kW
 
       Time Step    1300   May  9, 2021  13:57:05
       Step Size:    0.399E-01 s, Total Time:      48.59 s
       Pressure Iterations:      1
       Maximum Velocity Error:  0.16E-01 on Mesh   1 at (  41  11  12)
       Maximum Pressure Error:  0.18E+02 on Mesh   1 at (  27  11   1)
       ---------------------------------------------------------------
       Max CFL number:  0.92E+00 at (  25,  11,   7)
       Max divergence:  0.33E+01 at (  26,  13,   1)
       Min divergence: -0.78E+00 at (  26,  12,   3)
       Max VN number:   0.49E+00 at (  26,  12,  12)
       Total Heat Release Rate:            490.191 kW
       Radiation Loss to Boundaries:      -165.773 kW
 
       Time Step    1400   May  9, 2021  13:57:12
       Step Size:    0.361E-01 s, Total Time:      52.22 s
       Pressure Iterations:      1
       Maximum Velocity Error:  0.11E-01 on Mesh   1 at (  41  12  12)
       Maximum Pressure Error:  0.21E+02 on Mesh   1 at (  25  11  12)
       ---------------------------------------------------------------
       Max CFL number:  0.90E+00 at (  27,  12,   9)
       Max divergence:  0.35E+01 at (  26,  13,   1)
       Min divergence: -0.13E+01 at (  26,  12,   4)
       Max VN number:   0.54E+00 at (  27,  12,  12)
       Total Heat Release Rate:            495.508 kW
       Radiation Loss to Boundaries:      -183.534 kW
 
       Time Step    1500   May  9, 2021  13:57:19
       Step Size:    0.384E-01 s, Total Time:      56.01 s
       Pressure Iterations:      1
       Maximum Velocity Error:  0.21E-01 on Mesh   1 at (  41  14  12)
       Maximum Pressure Error:  0.25E+02 on Mesh   1 at (  25  10   1)
       ---------------------------------------------------------------
       Max CFL number:  0.88E+00 at (  27,  12,   9)
       Max divergence:  0.43E+01 at (  27,  10,   1)
       Min divergence: -0.13E+01 at (  27,  11,   4)
       Max VN number:   0.61E+00 at (  27,  12,  12)
       Total Heat Release Rate:            513.961 kW
       Radiation Loss to Boundaries:      -200.596 kW
 
       Time Step    1600   May  9, 2021  13:57:25
       Step Size:    0.373E-01 s, Total Time:      59.80 s
       Pressure Iterations:      1
       Maximum Velocity Error:  0.40E-01 on Mesh   1 at (  41  14  12)
       Maximum Pressure Error:  0.34E+02 on Mesh   1 at (  25  13   1)
       ---------------------------------------------------------------
       Max CFL number:  0.83E+00 at (  26,  12,  10)
       Max divergence:  0.37E+01 at (  27,  10,   1)
       Min divergence: -0.11E+01 at (  27,  11,   3)
       Max VN number:   0.60E+00 at (  26,  12,  12)
       Total Heat Release Rate:            497.817 kW
       Radiation Loss to Boundaries:      -189.318 kW
 
       Time Step    1700   May  9, 2021  13:57:32
       Step Size:    0.352E-01 s, Total Time:      63.57 s
       Pressure Iterations:      1
       Maximum Velocity Error:  0.16E-01 on Mesh   1 at (  41  14  12)
       Maximum Pressure Error:  0.43E+02 on Mesh   1 at (  25  10   1)
       ---------------------------------------------------------------
       Max CFL number:  0.95E+00 at (  27,  12,   7)
       Max divergence:  0.35E+01 at (  26,  10,   1)
       Min divergence: -0.13E+01 at (  27,  12,   5)
       Max VN number:   0.50E+00 at (  27,  12,  12)
       Total Heat Release Rate:            574.851 kW
       Radiation Loss to Boundaries:      -236.757 kW
 
       Time Step    1800   May  9, 2021  13:57:39
       Step Size:    0.364E-01 s, Total Time:      67.28 s
       Pressure Iterations:      1
       Maximum Velocity Error:  0.20E-01 on Mesh   1 at (  41  16  12)
       Maximum Pressure Error:  0.34E+02 on Mesh   1 at (  28  10   1)
       ---------------------------------------------------------------
       Max CFL number:  0.83E+00 at (  27,  12,  10)
       Max divergence:  0.36E+01 at (  27,  13,   1)
       Min divergence: -0.12E+01 at (  26,  11,   2)
       Max VN number:   0.42E+00 at (  26,  12,  12)
       Total Heat Release Rate:            511.925 kW
       Radiation Loss to Boundaries:      -208.953 kW
 
       Time Step    1900   May  9, 2021  13:57:46
       Step Size:    0.395E-01 s, Total Time:      71.09 s
       Pressure Iterations:      1
       Maximum Velocity Error:  0.19E-01 on Mesh   1 at (  41  14  12)
       Maximum Pressure Error:  0.50E+02 on Mesh   1 at (  25  13   1)
       ---------------------------------------------------------------
       Max CFL number:  0.83E+00 at (  26,  12,   8)
       Max divergence:  0.39E+01 at (  28,  11,   1)
       Min divergence: -0.14E+01 at (  27,  11,   2)
       Max VN number:   0.51E+00 at (  27,  12,  12)
       Total Heat Release Rate:            482.261 kW
       Radiation Loss to Boundaries:      -197.185 kW
 
       Time Step    2000   May  9, 2021  13:57:52
       Step Size:    0.406E-01 s, Total Time:      74.79 s
       Pressure Iterations:      1
       Maximum Velocity Error:  0.11E-01 on Mesh   1 at (  41   9  12)
       Maximum Pressure Error:  0.46E+02 on Mesh   1 at (  28  10  12)
       ---------------------------------------------------------------
       Max CFL number:  0.84E+00 at (  27,  12,   5)
       Max divergence:  0.37E+01 at (  26,  11,   1)
       Min divergence: -0.22E+01 at (  27,  11,   2)
       Max VN number:   0.58E+00 at (  28,  10,  12)
       Total Heat Release Rate:            440.563 kW
       Radiation Loss to Boundaries:      -183.844 kW
 
       Time Step    2100   May  9, 2021  13:57:59
       Step Size:    0.418E-01 s, Total Time:      78.83 s
       Pressure Iterations:      1
       Maximum Velocity Error:  0.39E-01 on Mesh   1 at (  41  12  12)
       Maximum Pressure Error:  0.86E+02 on Mesh   1 at (  27  11   1)
       ---------------------------------------------------------------
       Max CFL number:  0.93E+00 at (  27,  11,   8)
       Max divergence:  0.36E+01 at (  26,  11,   1)
       Min divergence: -0.10E+01 at (  27,  12,   5)
       Max VN number:   0.58E+00 at (  27,  12,  12)
       Total Heat Release Rate:            518.132 kW
       Radiation Loss to Boundaries:      -211.926 kW
 
       Time Step    2200   May  9, 2021  13:58:06
       Step Size:    0.390E-01 s, Total Time:      82.63 s
       Pressure Iterations:      1
       Maximum Velocity Error:  0.22E-01 on Mesh   1 at (  41  12  12)
       Maximum Pressure Error:  0.73E+02 on Mesh   1 at (  27  13   1)
       ---------------------------------------------------------------
       Max CFL number:  0.82E+00 at (  27,  12,   9)
       Max divergence:  0.35E+01 at (  26,  11,   1)
       Min divergence: -0.82E+00 at (  27,  11,   2)
       Max VN number:   0.56E+00 at (  27,  13,  12)
       Total Heat Release Rate:            510.615 kW
       Radiation Loss to Boundaries:      -219.519 kW
 
       Time Step    2300   May  9, 2021  13:58:12
       Step Size:    0.365E-01 s, Total Time:      86.58 s
       Pressure Iterations:      1
       Maximum Velocity Error:  0.36E-01 on Mesh   1 at (  41  13  12)
       Maximum Pressure Error:  0.84E+02 on Mesh   1 at (  25  10   1)
       ---------------------------------------------------------------
       Max CFL number:  0.93E+00 at (  28,  12,   9)
       Max divergence:  0.36E+01 at (  27,  11,   1)
       Min divergence: -0.11E+01 at (  27,  12,   4)
       Max VN number:   0.51E+00 at (  27,  12,  12)
       Total Heat Release Rate:            506.069 kW
       Radiation Loss to Boundaries:      -214.437 kW
 
       Time Step    2400   May  9, 2021  13:58:19
       Step Size:    0.442E-01 s, Total Time:      90.31 s
       Pressure Iterations:      1
       Maximum Velocity Error:  0.20E-01 on Mesh   1 at (  41   5   1)
       Maximum Pressure Error:  0.76E+02 on Mesh   1 at (  27  11   1)
       ---------------------------------------------------------------
       Max CFL number:  0.90E+00 at (  27,  11,   4)
       Max divergence:  0.36E+01 at (  28,  12,   1)
       Min divergence: -0.11E+01 at (  27,  12,   2)
       Max VN number:   0.52E+00 at (  29,  12,  12)
       Total Heat Release Rate:            491.286 kW
       Radiation Loss to Boundaries:      -226.103 kW
 
       Time Step    2500   May  9, 2021  13:58:26
       Step Size:    0.454E-01 s, Total Time:      94.36 s
       Pressure Iterations:      1
       Maximum Velocity Error:  0.15E-01 on Mesh   1 at (  41  13  12)
       Maximum Pressure Error:  0.11E+03 on Mesh   1 at (  26  10   1)
       ---------------------------------------------------------------
       Max CFL number:  0.87E+00 at (  28,  10,   9)
       Max divergence:  0.38E+01 at (  27,  12,   1)
       Min divergence: -0.14E+01 at (  27,  11,   3)
       Max VN number:   0.47E+00 at (  30,  10,  12)
       Total Heat Release Rate:            467.289 kW
       Radiation Loss to Boundaries:      -216.534 kW
 
       Time Step    2600   May  9, 2021  13:58:32
       Step Size:    0.357E-01 s, Total Time:      98.18 s
       Pressure Iterations:      1
       Maximum Velocity Error:  0.28E-01 on Mesh   1 at (  41  14  12)
       Maximum Pressure Error:  0.96E+02 on Mesh   1 at (  25  10   1)
       ---------------------------------------------------------------
       Max CFL number:  0.78E+00 at (  26,  11,   9)
       Max divergence:  0.40E+01 at (  27,  12,   1)
       Min divergence: -0.11E+01 at (  27,  11,   2)
       Max VN number:   0.38E+00 at (  25,  12,  12)
       Total Heat Release Rate:            452.215 kW
       Radiation Loss to Boundaries:      -220.315 kW
 
       Time Step    2647   May  9, 2021  13:58:35
       Step Size:    0.154E-01 s, Total Time:     100.00 s
       Pressure Iterations:      1
       Maximum Velocity Error:  0.27E-01 on Mesh   1 at (  41  14  12)
       Maximum Pressure Error:  0.23E+03 on Mesh   1 at (  27  11   1)
       ---------------------------------------------------------------
       Max CFL number:  0.33E+00 at (  27,  11,   7)
       Max divergence:  0.36E+01 at (  28,  11,   1)
       Min divergence: -0.12E+01 at (  27,  11,   7)
       Max VN number:   0.18E+00 at (  27,   9,  12)
       Total Heat Release Rate:            560.889 kW
       Radiation Loss to Boundaries:      -242.942 kW
 


 Time Stepping Wall Clock Time (s):      179.006
 Total Elapsed Wall Clock Time (s):      181.355

STOP: FDS completed successfully (CHID: smoke_control)
